Info: SIMULATION PARAMETERS:
Info: TIMESTEP               2
Info: NUMBER OF STEPS        0
Info: STEPS PER CYCLE        20
Info: PERIODIC CELL BASIS 1  39.972 0 0
Info: PERIODIC CELL BASIS 2  0 39.941 0
Info: PERIODIC CELL BASIS 3  0 0 39.935
Info: PERIODIC CELL CENTER   0.0601 0.0979 -0.156
Info: WRAPPING ALL CLUSTERS AROUND PERIODIC BOUNDARIES ON OUTPUT.
Info: FIRST LDB TIMESTEP     100
Info: LAST LDB TIMESTEP     -1
Info: HOM BACKGROUND SCALING 1
Info: PME BACKGROUND SCALING 1
Info: MIN ATOMS PER PATCH    40
Info: INITIAL TEMPERATURE    300
Info: CENTER OF MASS MOVING INITIALLY? NO
Info: DIELECTRIC             1
Info: EXCLUDE                SCALED ONE-FOUR
Info: 1-4 ELECTROSTATICS SCALED BY 1
Info: MODIFIED 1-4 VDW PARAMETERS WILL BE USED
Info: NO DCD TRAJECTORY OUTPUT
Info: XST FILENAME           equil.xst
Info: XST FREQUENCY          100
Info: NO VELOCITY DCD OUTPUT
Info: NO FORCE DCD OUTPUT
Info: OUTPUT FILENAME        equil
Info: BINARY OUTPUT FILES WILL BE USED
Info: RESTART FILENAME       equil
Info: RESTART FREQUENCY      100
Info: BINARY RESTART FILES WILL BE USED
Info: SWITCHING ACTIVE
Info: SWITCHING ON           10
Info: SWITCHING OFF          12
Info: PAIRLIST DISTANCE      16
Info: PAIRLIST SHRINK RATE   0.01
Info: PAIRLIST GROW RATE     0.01
Info: PAIRLIST TRIGGER       0.3
Info: PAIRLISTS PER CYCLE    2
Info: PAIRLISTS ENABLED
Info: MARGIN                 8
Info: HYDROGEN GROUP CUTOFF  2.8
Info: PATCH DIMENSION        26.8
Info: ENERGY OUTPUT STEPS    100
Info: CROSSTERM ENERGY INCLUDED IN DIHEDRAL
Info: TIMING OUTPUT STEPS    100
Info: PRESSURE OUTPUT STEPS  100
Info: FIXED ATOMS ACTIVE
Info: ALCHEMICAL FEP ON
Info: FEP CURRENT LAMBDA VALUE     0
Info: FEP COMPARISON LAMBDA VALUE  0
Info: FEP VDW SHIFTING COEFFICIENT 5
Info: FEP ELEC. ACTIVE FOR ANNIHILATED PARTICLES BETWEEN LAMBDA = 0 AND LAMBDA = 1
Info: FEP ELEC. ACTIVE FOR EXNIHILATED PARTICLES BETWEEN LAMBDA = 0 AND LAMBDA = 1
Info: FEP VDW ACTIVE FOR ANNIHILATED PARTICLES BETWEEN LAMBDA = 1 AND LAMBDA = 1
Info: FEP VDW ACTIVE FOR EXNIHILATED PARTICLES BETWEEN LAMBDA = 0 AND LAMBDA = 0
Info: LANGEVIN DYNAMICS ACTIVE
Info: LANGEVIN TEMPERATURE   300
Info: LANGEVIN DAMPING COEFFICIENT IS 5 INVERSE PS
Info: LANGEVIN DYNAMICS APPLIED TO HYDROGENS
Info: LANGEVIN PISTON PRESSURE CONTROL ACTIVE
Info:        TARGET PRESSURE IS 1.01325 BAR
Info:     OSCILLATION PERIOD IS 200 FS
Info:             DECAY TIME IS 100 FS
Info:     PISTON TEMPERATURE IS 300 K
Info:       PRESSURE CONTROL IS GROUP-BASED
Info:    INITIAL STRAIN RATE IS 0 0 0
Info:       CELL FLUCTUATION IS ISOTROPIC
Info: PARTICLE MESH EWALD (PME) ACTIVE
Info: PME TOLERANCE               1e-05
Info: PME EWALD COEFFICIENT       0.226635
Info: PME INTERPOLATION ORDER     4
Info: PME GRID DIMENSIONS         40 40 40
Info: PME MAXIMUM GRID SPACING    1
Info: FULL ELECTROSTATIC EVALUATION FREQUENCY      2
Info: USING VERLET I (r-RESPA) MTS SCHEME.
Info: C1 SPLITTING OF LONG RANGE ELECTROSTATICS
Info: PLACING ATOMS IN PATCHES BY HYDROGEN GROUPS
Info: RIGID BONDS TO HYDROGEN : ALL
Info:         ERROR TOLERANCE : 1e-06
Info:          MAX ITERATIONS : 400
Info: RIGID WATER USING SETTLE ALGORITHM
Info: RANDOM NUMBER SEED     1407976556
Info: USE HYDROGEN BONDS?    NO
Info: COORDINATE PDB         cys_solvated.pdb
Info: STRUCTURE FILE         cys_solvated.psf
Info: PARAMETER file: CHARMM format!
Info: PARAMETERS             /Users/jbardhan/Parameters/par_all27_prot_lipid_more.prm
Info: USING ARITHMETIC MEAN TO COMBINE L-J SIGMA PARAMETERS
Info: SUMMARY OF PARAMETERS:
Info: 180 BONDS
Info: 447 ANGLES
Info: 568 DIHEDRAL
Info: 46 IMPROPER
Info: 6 CROSSTERM
Info: 114 VDW
Info: 0 VDW_PAIRS
Info: 0 NBTHOLE_PAIRS
Info: To read alchdata from file: fix.pdb
Info: To read alchflag data from column: 5
Info: STRUCTURE SUMMARY:
Info: 5906 ATOMS
Info: 3944 BONDS
Info: 1998 ANGLES
Info: 44 DIHEDRALS
Info: 4 IMPROPERS
Info: 0 CROSSTERMS
Info: 0 EXCLUSIONS
Info: 23 FIXED ATOMS
Info: 5895 RIGID BONDS
Info: 12 RIGID BONDS BETWEEN FIXED ATOMS
Info: ALCH: 0 ATOMS TO DISAPPEAR IN FINAL STATE
Info: ALCH: 23 ATOMS TO APPEAR IN FINAL STATE
Info: 11766 DEGREES OF FREEDOM
Info: 1972 HYDROGEN GROUPS
Info: 4 ATOMS IN LARGEST HYDROGEN GROUP
Info: 1972 MIGRATION GROUPS
Info: 4 ATOMS IN LARGEST MIGRATION GROUP
Info: 11 HYDROGEN GROUPS WITH ALL ATOMS FIXED
Info: TOTAL MASS = 35504.4 amu
Info: TOTAL CHARGE = -1 e
Info: MASS DENSITY = 0.924727 g/cm^3
Info: ATOM DENSITY = 0.0926328 atoms/A^3
Info: REMOVING COM VELOCITY -0.0150437 0.0445543 -0.162608
Info: NONBONDED TABLE R-SQUARED SPACING: 0.0625
Info: NONBONDED TABLE SIZE: 769 POINTS
TCL: Minimizing for 100 steps
ETITLE: TS BOND ANGLE DIHED IMPRP ELECT VDW BOUNDARY MISC KINETIC TOTAL TEMP POTENTIAL TOTAL3 TEMPAVG PRESSURE GPRESSURE VOLUME PRESSAVG GPRESSAVG
ENERGY: 0 1846.7260 411.2134 0.0000 0.0000 -19650.3039 2274846.8696 0.0000 0.0000 0.0000 2257454.5051 0.0000 2257454.5051 2257454.5051 0.0000 9910502.2023 9916299.2975 63757.0922 9910502.2023 9916299.2975
ENERGY: 20 825.0454 363.3990 0.0000 0.0000 -19993.9087 2506.6060 0.0000 0.0000 0.0000 -16298.8583 0.0000 -16298.8583 -16298.8583 0.0000 -982.2963 1666.0457 63757.0922 -982.2963 1666.0457
ENERGY: 40 1283.0842 411.6948 0.0000 0.0000 -20826.7742 1952.1874 0.0000 0.0000 0.0000 -17179.8078 0.0000 -17179.8078 -17179.8078 0.0000 -3568.9926 -2210.0164 63757.0922 -3568.9926 -2210.0164
ENERGY: 60 554.7968 863.3328 0.0000 0.0000 -21981.1599 1632.2451 0.0000 0.0000 0.0000 -18930.7852 0.0000 -18930.7852 -18930.7852 0.0000 -3637.2364 -5141.5186 63757.0922 -3637.2364 -5141.5186
ENERGY: 80 587.9517 407.4433 0.0000 0.0000 -22646.3918 1564.6150 0.0000 0.0000 0.0000 -20086.3818 0.0000 -20086.3818 -20086.3818 0.0000 -4722.8270 -6395.9261 63757.0922 -4722.8270 -6395.9261
ENERGY: 100 577.9625 462.7115 0.0000 0.0000 -23385.1207 1539.6079 0.0000 0.0000 0.0000 -20804.8387 0.0000 -20804.8387 -20804.8387 0.0000 -6458.8282 -7471.4285 63757.0922 -6458.8282 -7471.4285
TCL: Running FEP window   1: Lambda1 0.0    Lambda2 0.0    [dLambda 0.0   ]
TCL: Setting parameter firsttimestep to 0
TCL: Setting parameter alchLambda to 0.0
Info: NONBONDED TABLE R-SQUARED SPACING: 0.0625
Info: NONBONDED TABLE SIZE: 769 POINTS
TCL: Setting parameter alchLambda2 to 0.0
Info: NONBONDED TABLE R-SQUARED SPACING: 0.0625
Info: NONBONDED TABLE SIZE: 769 POINTS
TCL: Original numsteps 100 will be ignored.
TCL: Running for 100000 steps
ETITLE: TS BOND ANGLE DIHED IMPRP ELECT VDW BOUNDARY MISC KINETIC TOTAL TEMP POTENTIAL TOTAL3 TEMPAVG PRESSURE GPRESSURE VOLUME PRESSAVG GPRESSAVG
ENERGY: 0 0.0000 0.0000 0.0000 0.0000 -21318.5361 1511.4736 0.0000 0.0000 3503.1605 -16303.9020 299.6550 -19807.0625 -16309.0690 299.6550 -4031.3756 -4003.3584 63757.0922 -4031.3756 -4003.3584
ENERGY: 20000 0.0000 0.0000 0.0000 0.0000 -21540.4475 2222.7361 0.0000 0.0000 3469.6009 -15848.1105 296.7844 -19317.7114 -15842.4951 298.3111 772.1200 798.4747 58201.6822 40.6102 34.6442
ENERGY: 40000 0.0000 0.0000 0.0000 0.0000 -21372.5733 2044.6100 0.0000 0.0000 3508.2922 -15819.6711 300.0940 -19327.9633 -15813.4998 300.8404 -147.5573 -34.7996 58520.6218 45.2747 47.8377
ENERGY: 60000 0.0000 0.0000 0.0000 0.0000 -21294.8138 2014.2461 0.0000 0.0000 3537.6024 -15742.9654 302.6011 -19280.5678 -15743.8511 299.2386 -78.6803 -40.3833 58027.1853 -64.5940 -75.7520
ENERGY: 80000 0.0000 0.0000 0.0000 0.0000 -21439.9159 2069.8502 0.0000 0.0000 3556.6150 -15813.4507 304.2274 -19370.0657 -15806.4329 302.3397 44.0172 23.2932 58319.5306 54.6306 43.8160
ENERGY: 100000 0.0000 0.0000 0.0000 0.0000 -21404.8857 2074.6184 0.0000 0.0000 3485.5813 -15844.6860 298.1513 -19330.2673 -15842.3116 301.5655 108.8769 179.2952 58024.2642 0.3049 -0.1634
