Info: SIMULATION PARAMETERS:
Info: TIMESTEP               2
Info: NUMBER OF STEPS        0
Info: STEPS PER CYCLE        20
Info: PERIODIC CELL BASIS 1  39.972 0 0
Info: PERIODIC CELL BASIS 2  0 39.941 0
Info: PERIODIC CELL BASIS 3  0 0 39.935
Info: PERIODIC CELL CENTER   0.0563 0.096 -0.156
Info: WRAPPING ALL CLUSTERS AROUND PERIODIC BOUNDARIES ON OUTPUT.
Info: FIRST LDB TIMESTEP     100
Info: LAST LDB TIMESTEP     -1
Info: HOM BACKGROUND SCALING 1
Info: PME BACKGROUND SCALING 1
Info: MIN ATOMS PER PATCH    40
Info: INITIAL TEMPERATURE    300
Info: CENTER OF MASS MOVING INITIALLY? NO
Info: DIELECTRIC             1
Info: EXCLUDE                SCALED ONE-FOUR
Info: 1-4 ELECTROSTATICS SCALED BY 1
Info: MODIFIED 1-4 VDW PARAMETERS WILL BE USED
Info: NO DCD TRAJECTORY OUTPUT
Info: XST FILENAME           equil.xst
Info: XST FREQUENCY          100
Info: NO VELOCITY DCD OUTPUT
Info: NO FORCE DCD OUTPUT
Info: OUTPUT FILENAME        equil
Info: BINARY OUTPUT FILES WILL BE USED
Info: RESTART FILENAME       equil
Info: RESTART FREQUENCY      100
Info: BINARY RESTART FILES WILL BE USED
Info: SWITCHING ACTIVE
Info: SWITCHING ON           10
Info: SWITCHING OFF          12
Info: PAIRLIST DISTANCE      16
Info: PAIRLIST SHRINK RATE   0.01
Info: PAIRLIST GROW RATE     0.01
Info: PAIRLIST TRIGGER       0.3
Info: PAIRLISTS PER CYCLE    2
Info: PAIRLISTS ENABLED
Info: MARGIN                 8
Info: HYDROGEN GROUP CUTOFF  2.8
Info: PATCH DIMENSION        26.8
Info: ENERGY OUTPUT STEPS    100
Info: CROSSTERM ENERGY INCLUDED IN DIHEDRAL
Info: TIMING OUTPUT STEPS    100
Info: PRESSURE OUTPUT STEPS  100
Info: FIXED ATOMS ACTIVE
Info: ALCHEMICAL FEP ON
Info: FEP CURRENT LAMBDA VALUE     0
Info: FEP COMPARISON LAMBDA VALUE  0
Info: FEP VDW SHIFTING COEFFICIENT 5
Info: FEP ELEC. ACTIVE FOR ANNIHILATED PARTICLES BETWEEN LAMBDA = 0 AND LAMBDA = 1
Info: FEP ELEC. ACTIVE FOR EXNIHILATED PARTICLES BETWEEN LAMBDA = 0 AND LAMBDA = 1
Info: FEP VDW ACTIVE FOR ANNIHILATED PARTICLES BETWEEN LAMBDA = 1 AND LAMBDA = 1
Info: FEP VDW ACTIVE FOR EXNIHILATED PARTICLES BETWEEN LAMBDA = 0 AND LAMBDA = 0
Info: LANGEVIN DYNAMICS ACTIVE
Info: LANGEVIN TEMPERATURE   300
Info: LANGEVIN DAMPING COEFFICIENT IS 5 INVERSE PS
Info: LANGEVIN DYNAMICS APPLIED TO HYDROGENS
Info: LANGEVIN PISTON PRESSURE CONTROL ACTIVE
Info:        TARGET PRESSURE IS 1.01325 BAR
Info:     OSCILLATION PERIOD IS 200 FS
Info:             DECAY TIME IS 100 FS
Info:     PISTON TEMPERATURE IS 300 K
Info:       PRESSURE CONTROL IS GROUP-BASED
Info:    INITIAL STRAIN RATE IS 0 0 0
Info:       CELL FLUCTUATION IS ISOTROPIC
Info: PARTICLE MESH EWALD (PME) ACTIVE
Info: PME TOLERANCE               1e-05
Info: PME EWALD COEFFICIENT       0.226635
Info: PME INTERPOLATION ORDER     4
Info: PME GRID DIMENSIONS         40 40 40
Info: PME MAXIMUM GRID SPACING    1
Info: FULL ELECTROSTATIC EVALUATION FREQUENCY      2
Info: USING VERLET I (r-RESPA) MTS SCHEME.
Info: C1 SPLITTING OF LONG RANGE ELECTROSTATICS
Info: PLACING ATOMS IN PATCHES BY HYDROGEN GROUPS
Info: RIGID BONDS TO HYDROGEN : ALL
Info:         ERROR TOLERANCE : 1e-06
Info:          MAX ITERATIONS : 400
Info: RIGID WATER USING SETTLE ALGORITHM
Info: RANDOM NUMBER SEED     1407959996
Info: USE HYDROGEN BONDS?    NO
Info: COORDINATE PDB         asp_solvated.pdb
Info: STRUCTURE FILE         asp_solvated.psf
Info: PARAMETER file: CHARMM format!
Info: PARAMETERS             /Users/jbardhan/Parameters/par_all27_prot_lipid_more.prm
Info: USING ARITHMETIC MEAN TO COMBINE L-J SIGMA PARAMETERS
Info: SUMMARY OF PARAMETERS:
Info: 180 BONDS
Info: 447 ANGLES
Info: 568 DIHEDRAL
Info: 46 IMPROPER
Info: 6 CROSSTERM
Info: 114 VDW
Info: 0 VDW_PAIRS
Info: 0 NBTHOLE_PAIRS
Info: To read alchdata from file: fix.pdb
Info: To read alchflag data from column: 5
Info: STRUCTURE SUMMARY:
Info: 5913 ATOMS
Info: 3949 BONDS
Info: 2002 ANGLES
Info: 47 DIHEDRALS
Info: 5 IMPROPERS
Info: 0 CROSSTERMS
Info: 0 EXCLUSIONS
Info: 24 FIXED ATOMS
Info: 5900 RIGID BONDS
Info: 11 RIGID BONDS BETWEEN FIXED ATOMS
Info: ALCH: 0 ATOMS TO DISAPPEAR IN FINAL STATE
Info: ALCH: 24 ATOMS TO APPEAR IN FINAL STATE
Info: 11778 DEGREES OF FREEDOM
Info: 1976 HYDROGEN GROUPS
Info: 4 ATOMS IN LARGEST HYDROGEN GROUP
Info: 1976 MIGRATION GROUPS
Info: 4 ATOMS IN LARGEST MIGRATION GROUP
Info: 13 HYDROGEN GROUPS WITH ALL ATOMS FIXED
Info: TOTAL MASS = 35551.4 amu
Info: TOTAL CHARGE = 2.23517e-08 e
Info: MASS DENSITY = 0.92595 g/cm^3
Info: ATOM DENSITY = 0.0927426 atoms/A^3
Info: REMOVING COM VELOCITY 0.116946 -0.192257 0.0327825
Info: NONBONDED TABLE R-SQUARED SPACING: 0.0625
Info: NONBONDED TABLE SIZE: 769 POINTS
TCL: Minimizing for 100 steps
ETITLE: TS BOND ANGLE DIHED IMPRP ELECT VDW BOUNDARY MISC KINETIC TOTAL TEMP POTENTIAL TOTAL3 TEMPAVG PRESSURE GPRESSURE VOLUME PRESSAVG GPRESSAVG
ENERGY: 0 1850.6954 410.8461 0.0000 0.0000 -19723.0103 2274866.1175 0.0000 0.0000 0.0000 2257404.6487 0.0000 2257404.6487 2257404.6487 0.0000 9910582.0967 9916410.1826 63757.0922 9910582.0967 9916410.1826
ENERGY: 20 827.0921 363.1949 0.0000 0.0000 -20067.4886 2525.0023 0.0000 0.0000 0.0000 -16352.1994 0.0000 -16352.1994 -16352.1994 0.0000 -895.0588 1768.7260 63757.0922 -895.0588 1768.7260
ENERGY: 40 1289.2384 411.8955 0.0000 0.0000 -20900.6022 1965.4448 0.0000 0.0000 0.0000 -17234.0236 0.0000 -17234.0236 -17234.0236 0.0000 -3518.1722 -2144.6067 63757.0922 -3518.1722 -2144.6067
ENERGY: 60 555.9351 865.0109 0.0000 0.0000 -22054.9493 1640.9424 0.0000 0.0000 0.0000 -18993.0608 0.0000 -18993.0608 -18993.0608 0.0000 -3604.5532 -5110.3407 63757.0922 -3604.5532 -5110.3407
ENERGY: 80 589.4919 407.7662 0.0000 0.0000 -22719.6769 1572.2757 0.0000 0.0000 0.0000 -20150.1432 0.0000 -20150.1432 -20150.1432 0.0000 -4703.6282 -6375.6884 63757.0922 -4703.6282 -6375.6884
ENERGY: 100 583.0706 502.9787 0.0000 0.0000 -23631.7811 1557.3642 0.0000 0.0000 0.0000 -20988.3675 0.0000 -20988.3675 -20988.3675 0.0000 -7217.2805 -7605.2237 63757.0922 -7217.2805 -7605.2237
TCL: Running FEP window   1: Lambda1 0.0    Lambda2 0.0    [dLambda 0.0   ]
TCL: Setting parameter firsttimestep to 0
TCL: Setting parameter alchLambda to 0.0
Info: NONBONDED TABLE R-SQUARED SPACING: 0.0625
Info: NONBONDED TABLE SIZE: 769 POINTS
TCL: Setting parameter alchLambda2 to 0.0
Info: NONBONDED TABLE R-SQUARED SPACING: 0.0625
Info: NONBONDED TABLE SIZE: 769 POINTS
TCL: Original numsteps 100 will be ignored.
TCL: Running for 100000 steps
ETITLE: TS BOND ANGLE DIHED IMPRP ELECT VDW BOUNDARY MISC KINETIC TOTAL TEMP POTENTIAL TOTAL3 TEMPAVG PRESSURE GPRESSURE VOLUME PRESSAVG GPRESSAVG
ENERGY: 0 0.0000 0.0000 0.0000 0.0000 -21477.5830 1528.2190 0.0000 0.0000 3464.7818 -16484.5822 296.0702 -19949.3640 -16489.6178 296.0702 -4117.3048 -4089.0482 63757.0922 -4117.3048 -4089.0482
ENERGY: 20000 0.0000 0.0000 0.0000 0.0000 -21400.1287 2023.0428 0.0000 0.0000 3518.9230 -15858.1629 300.6967 -19377.0858 -15854.3550 299.8799 -259.6343 -231.4378 58900.2371 58.7943 53.3160
ENERGY: 40000 0.0000 0.0000 0.0000 0.0000 -21484.2936 2120.0712 0.0000 0.0000 3508.7115 -15855.5109 299.8241 -19364.2224 -15857.6031 301.6993 485.4470 432.7255 58070.5132 33.2041 31.9809
ENERGY: 60000 0.0000 0.0000 0.0000 0.0000 -21412.8219 1975.3693 0.0000 0.0000 3549.1752 -15888.2774 303.2817 -19437.4526 -15879.3026 296.2672 -229.1393 -221.1208 57882.4996 50.4858 46.5172
ENERGY: 80000 0.0000 0.0000 0.0000 0.0000 -21188.6671 2004.2718 0.0000 0.0000 3545.6790 -15638.7164 302.9830 -19184.3953 -15632.2444 302.4798 170.9917 124.6078 58210.8157 44.9163 43.6755
ENERGY: 100000 0.0000 0.0000 0.0000 0.0000 -21354.2189 2007.0561 0.0000 0.0000 3515.4028 -15831.7601 300.3958 -19347.1629 -15826.0210 301.2620 -218.8113 -128.0294 58269.9591 -66.6647 -66.8396
