Info: SIMULATION PARAMETERS:
Info: TIMESTEP               2
Info: NUMBER OF STEPS        0
Info: STEPS PER CYCLE        20
Info: PERIODIC CELL BASIS 1  39.972 0 0
Info: PERIODIC CELL BASIS 2  0 39.941 0
Info: PERIODIC CELL BASIS 3  0 0 39.935
Info: PERIODIC CELL CENTER   0.0601 0.096 -0.163
Info: WRAPPING ALL CLUSTERS AROUND PERIODIC BOUNDARIES ON OUTPUT.
Info: FIRST LDB TIMESTEP     100
Info: LAST LDB TIMESTEP     -1
Info: HOM BACKGROUND SCALING 1
Info: PME BACKGROUND SCALING 1
Info: MIN ATOMS PER PATCH    40
Info: INITIAL TEMPERATURE    300
Info: CENTER OF MASS MOVING INITIALLY? NO
Info: DIELECTRIC             1
Info: EXCLUDE                SCALED ONE-FOUR
Info: 1-4 ELECTROSTATICS SCALED BY 1
Info: MODIFIED 1-4 VDW PARAMETERS WILL BE USED
Info: NO DCD TRAJECTORY OUTPUT
Info: XST FILENAME           equil.xst
Info: XST FREQUENCY          100
Info: NO VELOCITY DCD OUTPUT
Info: NO FORCE DCD OUTPUT
Info: OUTPUT FILENAME        equil
Info: BINARY OUTPUT FILES WILL BE USED
Info: RESTART FILENAME       equil
Info: RESTART FREQUENCY      100
Info: BINARY RESTART FILES WILL BE USED
Info: SWITCHING ACTIVE
Info: SWITCHING ON           10
Info: SWITCHING OFF          12
Info: PAIRLIST DISTANCE      16
Info: PAIRLIST SHRINK RATE   0.01
Info: PAIRLIST GROW RATE     0.01
Info: PAIRLIST TRIGGER       0.3
Info: PAIRLISTS PER CYCLE    2
Info: PAIRLISTS ENABLED
Info: MARGIN                 8
Info: HYDROGEN GROUP CUTOFF  2.8
Info: PATCH DIMENSION        26.8
Info: ENERGY OUTPUT STEPS    100
Info: CROSSTERM ENERGY INCLUDED IN DIHEDRAL
Info: TIMING OUTPUT STEPS    100
Info: PRESSURE OUTPUT STEPS  100
Info: FIXED ATOMS ACTIVE
Info: ALCHEMICAL FEP ON
Info: FEP CURRENT LAMBDA VALUE     0
Info: FEP COMPARISON LAMBDA VALUE  0
Info: FEP VDW SHIFTING COEFFICIENT 5
Info: FEP ELEC. ACTIVE FOR ANNIHILATED PARTICLES BETWEEN LAMBDA = 0 AND LAMBDA = 1
Info: FEP ELEC. ACTIVE FOR EXNIHILATED PARTICLES BETWEEN LAMBDA = 0 AND LAMBDA = 1
Info: FEP VDW ACTIVE FOR ANNIHILATED PARTICLES BETWEEN LAMBDA = 1 AND LAMBDA = 1
Info: FEP VDW ACTIVE FOR EXNIHILATED PARTICLES BETWEEN LAMBDA = 0 AND LAMBDA = 0
Info: LANGEVIN DYNAMICS ACTIVE
Info: LANGEVIN TEMPERATURE   300
Info: LANGEVIN DAMPING COEFFICIENT IS 5 INVERSE PS
Info: LANGEVIN DYNAMICS APPLIED TO HYDROGENS
Info: LANGEVIN PISTON PRESSURE CONTROL ACTIVE
Info:        TARGET PRESSURE IS 1.01325 BAR
Info:     OSCILLATION PERIOD IS 200 FS
Info:             DECAY TIME IS 100 FS
Info:     PISTON TEMPERATURE IS 300 K
Info:       PRESSURE CONTROL IS GROUP-BASED
Info:    INITIAL STRAIN RATE IS 0 0 0
Info:       CELL FLUCTUATION IS ISOTROPIC
Info: PARTICLE MESH EWALD (PME) ACTIVE
Info: PME TOLERANCE               1e-05
Info: PME EWALD COEFFICIENT       0.226635
Info: PME INTERPOLATION ORDER     4
Info: PME GRID DIMENSIONS         40 40 40
Info: PME MAXIMUM GRID SPACING    1
Info: FULL ELECTROSTATIC EVALUATION FREQUENCY      2
Info: USING VERLET I (r-RESPA) MTS SCHEME.
Info: C1 SPLITTING OF LONG RANGE ELECTROSTATICS
Info: PLACING ATOMS IN PATCHES BY HYDROGEN GROUPS
Info: RIGID BONDS TO HYDROGEN : ALL
Info:         ERROR TOLERANCE : 1e-06
Info:          MAX ITERATIONS : 400
Info: RIGID WATER USING SETTLE ALGORITHM
Info: RANDOM NUMBER SEED     1407986258
Info: USE HYDROGEN BONDS?    NO
Info: COORDINATE PDB         his_solvated.pdb
Info: STRUCTURE FILE         his_solvated.psf
Info: PARAMETER file: CHARMM format!
Info: PARAMETERS             /Users/jbardhan/Parameters/par_all27_prot_lipid_more.prm
Info: USING ARITHMETIC MEAN TO COMBINE L-J SIGMA PARAMETERS
Info: SUMMARY OF PARAMETERS:
Info: 180 BONDS
Info: 447 ANGLES
Info: 568 DIHEDRAL
Info: 46 IMPROPER
Info: 6 CROSSTERM
Info: 114 VDW
Info: 0 VDW_PAIRS
Info: 0 NBTHOLE_PAIRS
Info: To read alchdata from file: fix.pdb
Info: To read alchflag data from column: 5
Info: STRUCTURE SUMMARY:
Info: 5907 ATOMS
Info: 3948 BONDS
Info: 2010 ANGLES
Info: 67 DIHEDRALS
Info: 8 IMPROPERS
Info: 0 CROSSTERMS
Info: 0 EXCLUSIONS
Info: 30 FIXED ATOMS
Info: 5892 RIGID BONDS
Info: 15 RIGID BONDS BETWEEN FIXED ATOMS
Info: ALCH: 0 ATOMS TO DISAPPEAR IN FINAL STATE
Info: ALCH: 30 ATOMS TO APPEAR IN FINAL STATE
Info: 11754 DEGREES OF FREEDOM
Info: 1974 HYDROGEN GROUPS
Info: 4 ATOMS IN LARGEST HYDROGEN GROUP
Info: 1974 MIGRATION GROUPS
Info: 4 ATOMS IN LARGEST MIGRATION GROUP
Info: 15 HYDROGEN GROUPS WITH ALL ATOMS FIXED
Info: TOTAL MASS = 35503.4 amu
Info: TOTAL CHARGE = 1 e
Info: MASS DENSITY = 0.9247 g/cm^3
Info: ATOM DENSITY = 0.0926485 atoms/A^3
Info: REMOVING COM VELOCITY 0.0391302 0.0965503 -0.0413276
Info: NONBONDED TABLE R-SQUARED SPACING: 0.0625
Info: NONBONDED TABLE SIZE: 769 POINTS
TCL: Minimizing for 100 steps
ETITLE: TS BOND ANGLE DIHED IMPRP ELECT VDW BOUNDARY MISC KINETIC TOTAL TEMP POTENTIAL TOTAL3 TEMPAVG PRESSURE GPRESSURE VOLUME PRESSAVG GPRESSAVG
ENERGY: 0 1842.5394 410.4404 0.0000 0.0000 -19648.0321 2274850.7426 0.0000 0.0000 0.0000 2257455.6902 0.0000 2257455.6902 2257455.6902 0.0000 9910529.3322 9916335.1572 63757.0922 9910529.3322 9916335.1572
ENERGY: 20 824.5683 362.8032 0.0000 0.0000 -19991.4902 2510.2903 0.0000 0.0000 0.0000 -16293.8283 0.0000 -16293.8283 -16293.8283 0.0000 -950.2597 1700.1837 63757.0922 -950.2597 1700.1837
ENERGY: 40 1284.3454 410.5187 0.0000 0.0000 -20824.0122 1955.8579 0.0000 0.0000 0.0000 -17173.2903 0.0000 -17173.2903 -17173.2903 0.0000 -3541.4266 -2175.5953 63757.0922 -3541.4266 -2175.5953
ENERGY: 60 554.5670 861.8160 0.0000 0.0000 -21977.9701 1635.6559 0.0000 0.0000 0.0000 -18925.9312 0.0000 -18925.9312 -18925.9312 0.0000 -3610.2470 -5108.9411 63757.0922 -3610.2470 -5108.9411
ENERGY: 80 587.7129 406.3592 0.0000 0.0000 -22643.7807 1568.2579 0.0000 0.0000 0.0000 -20081.4507 0.0000 -20081.4507 -20081.4507 0.0000 -4690.2248 -6364.1199 63757.0922 -4690.2248 -6364.1199
ENERGY: 100 581.2077 503.0949 0.0000 0.0000 -23556.3556 1554.3815 0.0000 0.0000 0.0000 -20917.6715 0.0000 -20917.6715 -20917.6715 0.0000 -7202.0042 -7591.1418 63757.0922 -7202.0042 -7591.1418
TCL: Running FEP window   1: Lambda1 0.0    Lambda2 0.0    [dLambda 0.0   ]
TCL: Setting parameter firsttimestep to 0
TCL: Setting parameter alchLambda to 0.0
Info: NONBONDED TABLE R-SQUARED SPACING: 0.0625
Info: NONBONDED TABLE SIZE: 769 POINTS
TCL: Setting parameter alchLambda2 to 0.0
Info: NONBONDED TABLE R-SQUARED SPACING: 0.0625
Info: NONBONDED TABLE SIZE: 769 POINTS
TCL: Original numsteps 100 will be ignored.
TCL: Running for 100000 steps
ETITLE: TS BOND ANGLE DIHED IMPRP ELECT VDW BOUNDARY MISC KINETIC TOTAL TEMP POTENTIAL TOTAL3 TEMPAVG PRESSURE GPRESSURE VOLUME PRESSAVG GPRESSAVG
ENERGY: 0 0.0000 0.0000 0.0000 0.0000 -21406.8755 1525.3589 0.0000 0.0000 3520.2607 -16361.2558 301.4252 -19881.5166 -16366.3778 301.4252 -4068.6446 -4040.2997 63757.0922 -4068.6446 -4040.2997
ENERGY: 20000 0.0000 0.0000 0.0000 0.0000 -21259.2370 1991.1130 0.0000 0.0000 3496.8807 -15771.2433 299.4232 -19268.1240 -15769.3279 300.1088 -63.1475 -104.0803 58089.0484 9.8980 5.7670
ENERGY: 40000 0.0000 0.0000 0.0000 0.0000 -21216.5107 1975.8927 0.0000 0.0000 3566.7902 -15673.8278 305.4093 -19240.6180 -15679.4554 303.8042 -345.0825 -281.4131 58579.7657 13.3160 9.3319
ENERGY: 60000 0.0000 0.0000 0.0000 0.0000 -21205.8989 1954.9075 0.0000 0.0000 3542.7535 -15708.2379 303.3511 -19250.9914 -15710.1071 302.8589 -334.6434 -349.3625 58332.7849 66.8247 55.2454
ENERGY: 80000 0.0000 0.0000 0.0000 0.0000 -21281.8157 1969.7117 0.0000 0.0000 3471.1730 -15840.9310 297.2220 -19312.1040 -15835.9689 300.5225 -232.5093 -226.6024 57958.6894 38.5429 30.9526
ENERGY: 100000 0.0000 0.0000 0.0000 0.0000 -21196.3290 1991.7619 0.0000 0.0000 3504.6590 -15699.9082 300.0893 -19204.5672 -15694.6934 304.3062 -269.7266 -276.2440 59002.4258 -115.0274 -112.0326
