Info: SIMULATION PARAMETERS:
Info: TIMESTEP               2
Info: NUMBER OF STEPS        0
Info: STEPS PER CYCLE        20
Info: PERIODIC CELL BASIS 1  39.972 0 0
Info: PERIODIC CELL BASIS 2  0 39.941 0
Info: PERIODIC CELL BASIS 3  0 0 39.935
Info: PERIODIC CELL CENTER   0.058 0.0975 -0.161
Info: WRAPPING ALL CLUSTERS AROUND PERIODIC BOUNDARIES ON OUTPUT.
Info: FIRST LDB TIMESTEP     100
Info: LAST LDB TIMESTEP     -1
Info: HOM BACKGROUND SCALING 1
Info: PME BACKGROUND SCALING 1
Info: MIN ATOMS PER PATCH    40
Info: INITIAL TEMPERATURE    300
Info: CENTER OF MASS MOVING INITIALLY? NO
Info: DIELECTRIC             1
Info: EXCLUDE                SCALED ONE-FOUR
Info: 1-4 ELECTROSTATICS SCALED BY 1
Info: MODIFIED 1-4 VDW PARAMETERS WILL BE USED
Info: NO DCD TRAJECTORY OUTPUT
Info: XST FILENAME           equil.xst
Info: XST FREQUENCY          100
Info: NO VELOCITY DCD OUTPUT
Info: NO FORCE DCD OUTPUT
Info: OUTPUT FILENAME        equil
Info: BINARY OUTPUT FILES WILL BE USED
Info: RESTART FILENAME       equil
Info: RESTART FREQUENCY      100
Info: BINARY RESTART FILES WILL BE USED
Info: SWITCHING ACTIVE
Info: SWITCHING ON           10
Info: SWITCHING OFF          12
Info: PAIRLIST DISTANCE      16
Info: PAIRLIST SHRINK RATE   0.01
Info: PAIRLIST GROW RATE     0.01
Info: PAIRLIST TRIGGER       0.3
Info: PAIRLISTS PER CYCLE    2
Info: PAIRLISTS ENABLED
Info: MARGIN                 8
Info: HYDROGEN GROUP CUTOFF  2.8
Info: PATCH DIMENSION        26.8
Info: ENERGY OUTPUT STEPS    100
Info: CROSSTERM ENERGY INCLUDED IN DIHEDRAL
Info: TIMING OUTPUT STEPS    100
Info: PRESSURE OUTPUT STEPS  100
Info: FIXED ATOMS ACTIVE
Info: ALCHEMICAL FEP ON
Info: FEP CURRENT LAMBDA VALUE     0
Info: FEP COMPARISON LAMBDA VALUE  0
Info: FEP VDW SHIFTING COEFFICIENT 5
Info: FEP ELEC. ACTIVE FOR ANNIHILATED PARTICLES BETWEEN LAMBDA = 0 AND LAMBDA = 1
Info: FEP ELEC. ACTIVE FOR EXNIHILATED PARTICLES BETWEEN LAMBDA = 0 AND LAMBDA = 1
Info: FEP VDW ACTIVE FOR ANNIHILATED PARTICLES BETWEEN LAMBDA = 1 AND LAMBDA = 1
Info: FEP VDW ACTIVE FOR EXNIHILATED PARTICLES BETWEEN LAMBDA = 0 AND LAMBDA = 0
Info: LANGEVIN DYNAMICS ACTIVE
Info: LANGEVIN TEMPERATURE   300
Info: LANGEVIN DAMPING COEFFICIENT IS 5 INVERSE PS
Info: LANGEVIN DYNAMICS APPLIED TO HYDROGENS
Info: LANGEVIN PISTON PRESSURE CONTROL ACTIVE
Info:        TARGET PRESSURE IS 1.01325 BAR
Info:     OSCILLATION PERIOD IS 200 FS
Info:             DECAY TIME IS 100 FS
Info:     PISTON TEMPERATURE IS 300 K
Info:       PRESSURE CONTROL IS GROUP-BASED
Info:    INITIAL STRAIN RATE IS 0 0 0
Info:       CELL FLUCTUATION IS ISOTROPIC
Info: PARTICLE MESH EWALD (PME) ACTIVE
Info: PME TOLERANCE               1e-05
Info: PME EWALD COEFFICIENT       0.226635
Info: PME INTERPOLATION ORDER     4
Info: PME GRID DIMENSIONS         40 40 40
Info: PME MAXIMUM GRID SPACING    1
Info: FULL ELECTROSTATIC EVALUATION FREQUENCY      2
Info: USING VERLET I (r-RESPA) MTS SCHEME.
Info: C1 SPLITTING OF LONG RANGE ELECTROSTATICS
Info: PLACING ATOMS IN PATCHES BY HYDROGEN GROUPS
Info: RIGID BONDS TO HYDROGEN : ALL
Info:         ERROR TOLERANCE : 1e-06
Info:          MAX ITERATIONS : 400
Info: RIGID WATER USING SETTLE ALGORITHM
Info: RANDOM NUMBER SEED     1408009530
Info: USE HYDROGEN BONDS?    NO
Info: COORDINATE PDB         arg_solvated.pdb
Info: STRUCTURE FILE         arg_solvated.psf
Info: PARAMETER file: CHARMM format!
Info: PARAMETERS             /Users/jbardhan/Parameters/par_all27_prot_lipid_more.prm
Info: USING ARITHMETIC MEAN TO COMBINE L-J SIGMA PARAMETERS
Info: SUMMARY OF PARAMETERS:
Info: 180 BONDS
Info: 447 ANGLES
Info: 568 DIHEDRAL
Info: 46 IMPROPER
Info: 6 CROSSTERM
Info: 114 VDW
Info: 0 VDW_PAIRS
Info: 0 NBTHOLE_PAIRS
Info: To read alchdata from file: fix.pdb
Info: To read alchflag data from column: 5
Info: STRUCTURE SUMMARY:
Info: 5907 ATOMS
Info: 3949 BONDS
Info: 2017 ANGLES
Info: 77 DIHEDRALS
Info: 5 IMPROPERS
Info: 0 CROSSTERMS
Info: 0 EXCLUSIONS
Info: 36 FIXED ATOMS
Info: 5891 RIGID BONDS
Info: 20 RIGID BONDS BETWEEN FIXED ATOMS
Info: ALCH: 0 ATOMS TO DISAPPEAR IN FINAL STATE
Info: ALCH: 36 ATOMS TO APPEAR IN FINAL STATE
Info: 11742 DEGREES OF FREEDOM
Info: 1973 HYDROGEN GROUPS
Info: 4 ATOMS IN LARGEST HYDROGEN GROUP
Info: 1973 MIGRATION GROUPS
Info: 4 ATOMS IN LARGEST MIGRATION GROUP
Info: 16 HYDROGEN GROUPS WITH ALL ATOMS FIXED
Info: TOTAL MASS = 35486.4 amu
Info: TOTAL CHARGE = 1 e
Info: MASS DENSITY = 0.924258 g/cm^3
Info: ATOM DENSITY = 0.0926485 atoms/A^3
Info: REMOVING COM VELOCITY -0.022684 -0.202405 -0.117702
Info: NONBONDED TABLE R-SQUARED SPACING: 0.0625
Info: NONBONDED TABLE SIZE: 769 POINTS
TCL: Minimizing for 100 steps
ETITLE: TS BOND ANGLE DIHED IMPRP ELECT VDW BOUNDARY MISC KINETIC TOTAL TEMP POTENTIAL TOTAL3 TEMPAVG PRESSURE GPRESSURE VOLUME PRESSAVG GPRESSAVG
ENERGY: 0 1845.7625 409.8449 0.0000 0.0000 -19714.6797 2274847.0687 0.0000 0.0000 0.0000 2257387.9964 0.0000 2257387.9964 2257387.9964 0.0000 9910470.7272 9916334.7696 63757.0922 9910470.7272 9916334.7696
ENERGY: 20 825.1814 362.0593 0.0000 0.0000 -20056.6215 2506.7470 0.0000 0.0000 0.0000 -16362.6337 0.0000 -16362.6337 -16362.6337 0.0000 -979.9526 1702.8635 63757.0922 -979.9526 1702.8635
ENERGY: 40 1284.0139 410.5873 0.0000 0.0000 -20889.0799 1952.0139 0.0000 0.0000 0.0000 -17242.4649 0.0000 -17242.4649 -17242.4649 0.0000 -3559.5796 -2173.2573 63757.0922 -3559.5796 -2173.2573
ENERGY: 60 554.3794 861.1043 0.0000 0.0000 -22039.6769 1631.8215 0.0000 0.0000 0.0000 -18992.3717 0.0000 -18992.3717 -18992.3717 0.0000 -3567.7836 -5100.6755 63757.0922 -3567.7836 -5100.6755
ENERGY: 80 586.2275 406.1441 0.0000 0.0000 -22702.1324 1564.5678 0.0000 0.0000 0.0000 -20145.1929 0.0000 -20145.1929 -20145.1929 0.0000 -4672.6849 -6347.7539 63757.0922 -4672.6849 -6347.7539
ENERGY: 100 632.2401 543.0623 0.0000 0.0000 -23742.1206 1560.1773 0.0000 0.0000 0.0000 -21006.6408 0.0000 -21006.6408 -21006.6408 0.0000 -8015.5270 -7674.6788 63757.0922 -8015.5270 -7674.6788
TCL: Running FEP window   1: Lambda1 0.0    Lambda2 0.0    [dLambda 0.0   ]
TCL: Setting parameter firsttimestep to 0
TCL: Setting parameter alchLambda to 0.0
Info: NONBONDED TABLE R-SQUARED SPACING: 0.0625
Info: NONBONDED TABLE SIZE: 769 POINTS
TCL: Setting parameter alchLambda2 to 0.0
Info: NONBONDED TABLE R-SQUARED SPACING: 0.0625
Info: NONBONDED TABLE SIZE: 769 POINTS
TCL: Original numsteps 100 will be ignored.
TCL: Running for 100000 steps
ETITLE: TS BOND ANGLE DIHED IMPRP ELECT VDW BOUNDARY MISC KINETIC TOTAL TEMP POTENTIAL TOTAL3 TEMPAVG PRESSURE GPRESSURE VOLUME PRESSAVG GPRESSAVG
ENERGY: 0 0.0000 0.0000 0.0000 0.0000 -21521.0195 1529.9871 0.0000 0.0000 3499.3850 -16491.6473 299.9439 -19991.0323 -16496.6119 299.9439 -4089.5270 -4062.1948 63757.0922 -4089.5270 -4062.1948
ENERGY: 20000 0.0000 0.0000 0.0000 0.0000 -21238.1382 1947.1275 0.0000 0.0000 3529.4108 -15761.5998 302.5175 -19291.0107 -15758.1442 299.1473 -281.4701 -198.7667 57999.0462 -35.4133 -32.8587
ENERGY: 40000 0.0000 0.0000 0.0000 0.0000 -21406.3646 2076.7233 0.0000 0.0000 3506.3955 -15823.2458 300.5448 -19329.6413 -15823.9311 300.7262 258.0598 257.7662 58268.7110 -33.8984 -44.3309
ENERGY: 60000 0.0000 0.0000 0.0000 0.0000 -21345.0339 1952.6295 0.0000 0.0000 3614.5850 -15777.8194 309.8181 -19392.4044 -15763.2795 302.7273 -339.0304 -308.7675 58317.9153 -14.0881 -20.7216
ENERGY: 80000 0.0000 0.0000 0.0000 0.0000 -21351.0745 2033.8775 0.0000 0.0000 3492.7844 -15824.4126 299.3781 -19317.1970 -15827.2494 301.3861 43.6566 -20.0149 58621.9900 -106.9781 -111.4263
ENERGY: 100000 0.0000 0.0000 0.0000 0.0000 -21382.1233 2046.9916 0.0000 0.0000 3583.8581 -15751.2737 307.1844 -19335.1317 -15744.9412 302.8849 -28.5042 63.2555 58381.5644 -35.8108 -28.9091
