Info: SIMULATION PARAMETERS:
Info: TIMESTEP               2
Info: NUMBER OF STEPS        0
Info: STEPS PER CYCLE        20
Info: PERIODIC CELL BASIS 1  39.972 0 0
Info: PERIODIC CELL BASIS 2  0 39.941 0
Info: PERIODIC CELL BASIS 3  0 0 39.935
Info: PERIODIC CELL CENTER   0.0601 0.096 -0.163
Info: WRAPPING ALL CLUSTERS AROUND PERIODIC BOUNDARIES ON OUTPUT.
Info: FIRST LDB TIMESTEP     100
Info: LAST LDB TIMESTEP     -1
Info: HOM BACKGROUND SCALING 1
Info: PME BACKGROUND SCALING 1
Info: MIN ATOMS PER PATCH    40
Info: INITIAL TEMPERATURE    300
Info: CENTER OF MASS MOVING INITIALLY? NO
Info: DIELECTRIC             1
Info: EXCLUDE                SCALED ONE-FOUR
Info: 1-4 ELECTROSTATICS SCALED BY 1
Info: MODIFIED 1-4 VDW PARAMETERS WILL BE USED
Info: NO DCD TRAJECTORY OUTPUT
Info: XST FILENAME           equil.xst
Info: XST FREQUENCY          100
Info: NO VELOCITY DCD OUTPUT
Info: NO FORCE DCD OUTPUT
Info: OUTPUT FILENAME        equil
Info: BINARY OUTPUT FILES WILL BE USED
Info: RESTART FILENAME       equil
Info: RESTART FREQUENCY      100
Info: BINARY RESTART FILES WILL BE USED
Info: SWITCHING ACTIVE
Info: SWITCHING ON           10
Info: SWITCHING OFF          12
Info: PAIRLIST DISTANCE      16
Info: PAIRLIST SHRINK RATE   0.01
Info: PAIRLIST GROW RATE     0.01
Info: PAIRLIST TRIGGER       0.3
Info: PAIRLISTS PER CYCLE    2
Info: PAIRLISTS ENABLED
Info: MARGIN                 8
Info: HYDROGEN GROUP CUTOFF  2.8
Info: PATCH DIMENSION        26.8
Info: ENERGY OUTPUT STEPS    100
Info: CROSSTERM ENERGY INCLUDED IN DIHEDRAL
Info: TIMING OUTPUT STEPS    100
Info: PRESSURE OUTPUT STEPS  100
Info: FIXED ATOMS ACTIVE
Info: ALCHEMICAL FEP ON
Info: FEP CURRENT LAMBDA VALUE     0
Info: FEP COMPARISON LAMBDA VALUE  0
Info: FEP VDW SHIFTING COEFFICIENT 5
Info: FEP ELEC. ACTIVE FOR ANNIHILATED PARTICLES BETWEEN LAMBDA = 0 AND LAMBDA = 1
Info: FEP ELEC. ACTIVE FOR EXNIHILATED PARTICLES BETWEEN LAMBDA = 0 AND LAMBDA = 1
Info: FEP VDW ACTIVE FOR ANNIHILATED PARTICLES BETWEEN LAMBDA = 1 AND LAMBDA = 1
Info: FEP VDW ACTIVE FOR EXNIHILATED PARTICLES BETWEEN LAMBDA = 0 AND LAMBDA = 0
Info: LANGEVIN DYNAMICS ACTIVE
Info: LANGEVIN TEMPERATURE   300
Info: LANGEVIN DAMPING COEFFICIENT IS 5 INVERSE PS
Info: LANGEVIN DYNAMICS APPLIED TO HYDROGENS
Info: LANGEVIN PISTON PRESSURE CONTROL ACTIVE
Info:        TARGET PRESSURE IS 1.01325 BAR
Info:     OSCILLATION PERIOD IS 200 FS
Info:             DECAY TIME IS 100 FS
Info:     PISTON TEMPERATURE IS 300 K
Info:       PRESSURE CONTROL IS GROUP-BASED
Info:    INITIAL STRAIN RATE IS 0 0 0
Info:       CELL FLUCTUATION IS ISOTROPIC
Info: PARTICLE MESH EWALD (PME) ACTIVE
Info: PME TOLERANCE               1e-05
Info: PME EWALD COEFFICIENT       0.226635
Info: PME INTERPOLATION ORDER     4
Info: PME GRID DIMENSIONS         40 40 40
Info: PME MAXIMUM GRID SPACING    1
Info: FULL ELECTROSTATIC EVALUATION FREQUENCY      2
Info: USING VERLET I (r-RESPA) MTS SCHEME.
Info: C1 SPLITTING OF LONG RANGE ELECTROSTATICS
Info: PLACING ATOMS IN PATCHES BY HYDROGEN GROUPS
Info: RIGID BONDS TO HYDROGEN : ALL
Info:         ERROR TOLERANCE : 1e-06
Info:          MAX ITERATIONS : 400
Info: RIGID WATER USING SETTLE ALGORITHM
Info: RANDOM NUMBER SEED     1408048274
Info: USE HYDROGEN BONDS?    NO
Info: COORDINATE PDB         his_solvated.pdb
Info: STRUCTURE FILE         his_solvated.psf
Info: PARAMETER file: CHARMM format!
Info: PARAMETERS             /Users/jbardhan/Parameters/par_all27_prot_lipid_more.prm
Info: USING ARITHMETIC MEAN TO COMBINE L-J SIGMA PARAMETERS
Info: SUMMARY OF PARAMETERS:
Info: 180 BONDS
Info: 447 ANGLES
Info: 568 DIHEDRAL
Info: 46 IMPROPER
Info: 6 CROSSTERM
Info: 114 VDW
Info: 0 VDW_PAIRS
Info: 0 NBTHOLE_PAIRS
Info: To read alchdata from file: fix.pdb
Info: To read alchflag data from column: 5
Info: STRUCTURE SUMMARY:
Info: 5907 ATOMS
Info: 3948 BONDS
Info: 2010 ANGLES
Info: 67 DIHEDRALS
Info: 8 IMPROPERS
Info: 0 CROSSTERMS
Info: 0 EXCLUSIONS
Info: 30 FIXED ATOMS
Info: 5892 RIGID BONDS
Info: 15 RIGID BONDS BETWEEN FIXED ATOMS
Info: ALCH: 0 ATOMS TO DISAPPEAR IN FINAL STATE
Info: ALCH: 30 ATOMS TO APPEAR IN FINAL STATE
Info: 11754 DEGREES OF FREEDOM
Info: 1974 HYDROGEN GROUPS
Info: 4 ATOMS IN LARGEST HYDROGEN GROUP
Info: 1974 MIGRATION GROUPS
Info: 4 ATOMS IN LARGEST MIGRATION GROUP
Info: 15 HYDROGEN GROUPS WITH ALL ATOMS FIXED
Info: TOTAL MASS = 35503.4 amu
Info: TOTAL CHARGE = 1.11759e-08 e
Info: MASS DENSITY = 0.9247 g/cm^3
Info: ATOM DENSITY = 0.0926485 atoms/A^3
Info: REMOVING COM VELOCITY -0.0256743 -0.0710876 0.0261108
Info: NONBONDED TABLE R-SQUARED SPACING: 0.0625
Info: NONBONDED TABLE SIZE: 769 POINTS
TCL: Minimizing for 100 steps
ETITLE: TS BOND ANGLE DIHED IMPRP ELECT VDW BOUNDARY MISC KINETIC TOTAL TEMP POTENTIAL TOTAL3 TEMPAVG PRESSURE GPRESSURE VOLUME PRESSAVG GPRESSAVG
ENERGY: 0 1842.5394 410.4404 0.0000 0.0000 -19659.3972 2274850.7426 0.0000 0.0000 0.0000 2257444.3251 0.0000 2257444.3251 2257444.3251 0.0000 9910533.3600 9916339.1850 63757.0922 9910533.3600 9916339.1850
ENERGY: 20 824.5683 362.8032 0.0000 0.0000 -20002.8552 2510.2903 0.0000 0.0000 0.0000 -16305.1934 0.0000 -16305.1934 -16305.1934 0.0000 -946.2321 1704.2113 63757.0922 -946.2321 1704.2113
ENERGY: 40 1284.3455 410.5187 0.0000 0.0000 -20835.3773 1955.8579 0.0000 0.0000 0.0000 -17184.6553 0.0000 -17184.6553 -17184.6553 0.0000 -3537.3986 -2171.5675 63757.0922 -3537.3986 -2171.5675
ENERGY: 60 554.5670 861.8160 0.0000 0.0000 -21989.3351 1635.6559 0.0000 0.0000 0.0000 -18937.2962 0.0000 -18937.2962 -18937.2962 0.0000 -3606.2191 -5104.9132 63757.0922 -3606.2191 -5104.9132
ENERGY: 80 584.4115 410.8024 0.0000 0.0000 -22656.7996 1569.4672 0.0000 0.0000 0.0000 -20092.1185 0.0000 -20092.1185 -20092.1185 0.0000 -4802.4956 -6353.7806 63757.0922 -4802.4956 -6353.7806
ENERGY: 100 657.0502 556.5969 0.0000 0.0000 -23736.6703 1568.9166 0.0000 0.0000 0.0000 -20954.1066 0.0000 -20954.1066 -20954.1066 0.0000 -8289.8074 -7712.5776 63757.0922 -8289.8074 -7712.5776
TCL: Running FEP window   1: Lambda1 0.0    Lambda2 0.0    [dLambda 0.0   ]
TCL: Setting parameter firsttimestep to 0
TCL: Setting parameter alchLambda to 0.0
Info: NONBONDED TABLE R-SQUARED SPACING: 0.0625
Info: NONBONDED TABLE SIZE: 769 POINTS
TCL: Setting parameter alchLambda2 to 0.0
Info: NONBONDED TABLE R-SQUARED SPACING: 0.0625
Info: NONBONDED TABLE SIZE: 769 POINTS
TCL: Original numsteps 100 will be ignored.
TCL: Running for 100000 steps
ETITLE: TS BOND ANGLE DIHED IMPRP ELECT VDW BOUNDARY MISC KINETIC TOTAL TEMP POTENTIAL TOTAL3 TEMPAVG PRESSURE GPRESSURE VOLUME PRESSAVG GPRESSAVG
ENERGY: 0 0.0000 0.0000 0.0000 0.0000 -21490.1083 1538.2977 0.0000 0.0000 3466.8295 -16484.9810 296.8501 -19951.8105 -16489.8964 296.8501 -4109.9043 -4081.7693 63757.0922 -4109.9043 -4081.7693
ENERGY: 20000 0.0000 0.0000 0.0000 0.0000 -21236.4155 1995.3355 0.0000 0.0000 3493.3429 -15747.7370 299.1203 -19241.0799 -15743.0622 299.2669 -505.6367 -418.5812 59384.3790 3.7008 -4.1574
ENERGY: 40000 0.0000 0.0000 0.0000 0.0000 -21321.7507 1917.6319 0.0000 0.0000 3484.6670 -15919.4518 298.3774 -19404.1188 -15917.0994 295.9196 -501.3088 -469.5371 57646.3107 -5.7321 -5.1083
ENERGY: 60000 0.0000 0.0000 0.0000 0.0000 -21528.0536 2065.1514 0.0000 0.0000 3529.9669 -15932.9353 302.2563 -19462.9022 -15931.1664 298.3059 -225.7268 -243.2846 58629.8594 20.2863 27.3040
ENERGY: 80000 0.0000 0.0000 0.0000 0.0000 -21169.5356 1985.5389 0.0000 0.0000 3427.8225 -15756.1743 293.5101 -19183.9968 -15747.2180 300.6122 -451.5013 -308.2501 58983.3033 8.6515 2.0286
ENERGY: 100000 0.0000 0.0000 0.0000 0.0000 -21339.5931 2017.5966 0.0000 0.0000 3495.8238 -15826.1726 299.3328 -19321.9965 -15827.9333 297.7720 239.1995 188.5020 57523.6504 56.9761 64.4584
