Info: SIMULATION PARAMETERS:
Info: TIMESTEP               2
Info: NUMBER OF STEPS        0
Info: STEPS PER CYCLE        20
Info: PERIODIC CELL BASIS 1  39.972 0 0
Info: PERIODIC CELL BASIS 2  0 39.941 0
Info: PERIODIC CELL BASIS 3  0 0 39.935
Info: PERIODIC CELL CENTER   0.0551 0.0897 -0.171
Info: WRAPPING ALL CLUSTERS AROUND PERIODIC BOUNDARIES ON OUTPUT.
Info: FIRST LDB TIMESTEP     100
Info: LAST LDB TIMESTEP     -1
Info: HOM BACKGROUND SCALING 1
Info: PME BACKGROUND SCALING 1
Info: MIN ATOMS PER PATCH    40
Info: INITIAL TEMPERATURE    300
Info: CENTER OF MASS MOVING INITIALLY? NO
Info: DIELECTRIC             1
Info: EXCLUDE                SCALED ONE-FOUR
Info: 1-4 ELECTROSTATICS SCALED BY 1
Info: MODIFIED 1-4 VDW PARAMETERS WILL BE USED
Info: NO DCD TRAJECTORY OUTPUT
Info: XST FILENAME           equil.xst
Info: XST FREQUENCY          100
Info: NO VELOCITY DCD OUTPUT
Info: NO FORCE DCD OUTPUT
Info: OUTPUT FILENAME        equil
Info: BINARY OUTPUT FILES WILL BE USED
Info: RESTART FILENAME       equil
Info: RESTART FREQUENCY      100
Info: BINARY RESTART FILES WILL BE USED
Info: SWITCHING ACTIVE
Info: SWITCHING ON           10
Info: SWITCHING OFF          12
Info: PAIRLIST DISTANCE      16
Info: PAIRLIST SHRINK RATE   0.01
Info: PAIRLIST GROW RATE     0.01
Info: PAIRLIST TRIGGER       0.3
Info: PAIRLISTS PER CYCLE    2
Info: PAIRLISTS ENABLED
Info: MARGIN                 8
Info: HYDROGEN GROUP CUTOFF  2.8
Info: PATCH DIMENSION        26.8
Info: ENERGY OUTPUT STEPS    100
Info: CROSSTERM ENERGY INCLUDED IN DIHEDRAL
Info: TIMING OUTPUT STEPS    100
Info: PRESSURE OUTPUT STEPS  100
Info: FIXED ATOMS ACTIVE
Info: ALCHEMICAL FEP ON
Info: FEP CURRENT LAMBDA VALUE     0
Info: FEP COMPARISON LAMBDA VALUE  0
Info: FEP VDW SHIFTING COEFFICIENT 5
Info: FEP ELEC. ACTIVE FOR ANNIHILATED PARTICLES BETWEEN LAMBDA = 0 AND LAMBDA = 1
Info: FEP ELEC. ACTIVE FOR EXNIHILATED PARTICLES BETWEEN LAMBDA = 0 AND LAMBDA = 1
Info: FEP VDW ACTIVE FOR ANNIHILATED PARTICLES BETWEEN LAMBDA = 1 AND LAMBDA = 1
Info: FEP VDW ACTIVE FOR EXNIHILATED PARTICLES BETWEEN LAMBDA = 0 AND LAMBDA = 0
Info: LANGEVIN DYNAMICS ACTIVE
Info: LANGEVIN TEMPERATURE   300
Info: LANGEVIN DAMPING COEFFICIENT IS 5 INVERSE PS
Info: LANGEVIN DYNAMICS APPLIED TO HYDROGENS
Info: LANGEVIN PISTON PRESSURE CONTROL ACTIVE
Info:        TARGET PRESSURE IS 1.01325 BAR
Info:     OSCILLATION PERIOD IS 200 FS
Info:             DECAY TIME IS 100 FS
Info:     PISTON TEMPERATURE IS 300 K
Info:       PRESSURE CONTROL IS GROUP-BASED
Info:    INITIAL STRAIN RATE IS 0 0 0
Info:       CELL FLUCTUATION IS ISOTROPIC
Info: PARTICLE MESH EWALD (PME) ACTIVE
Info: PME TOLERANCE               1e-05
Info: PME EWALD COEFFICIENT       0.226635
Info: PME INTERPOLATION ORDER     4
Info: PME GRID DIMENSIONS         40 40 40
Info: PME MAXIMUM GRID SPACING    1
Info: FULL ELECTROSTATIC EVALUATION FREQUENCY      2
Info: USING VERLET I (r-RESPA) MTS SCHEME.
Info: C1 SPLITTING OF LONG RANGE ELECTROSTATICS
Info: PLACING ATOMS IN PATCHES BY HYDROGEN GROUPS
Info: RIGID BONDS TO HYDROGEN : ALL
Info:         ERROR TOLERANCE : 1e-06
Info:          MAX ITERATIONS : 400
Info: RIGID WATER USING SETTLE ALGORITHM
Info: RANDOM NUMBER SEED     1407953550
Info: USE HYDROGEN BONDS?    NO
Info: COORDINATE PDB         tyr_solvated.pdb
Info: STRUCTURE FILE         tyr_solvated.psf
Info: PARAMETER file: CHARMM format!
Info: PARAMETERS             /homes/jbardhan/Parameters/par_all27_prot_lipid_more.prm
Info: USING ARITHMETIC MEAN TO COMBINE L-J SIGMA PARAMETERS
Info: SUMMARY OF PARAMETERS:
Info: 180 BONDS
Info: 447 ANGLES
Info: 568 DIHEDRAL
Info: 46 IMPROPER
Info: 6 CROSSTERM
Info: 114 VDW
Info: 0 VDW_PAIRS
Info: To read alch data from file: fix.pdb
Info: To read alch flag data from column: 5
Info: STRUCTURE SUMMARY:
Info: 5898 ATOMS
Info: 3943 BONDS
Info: 2010 ANGLES
Info: 73 DIHEDRALS
Info: 4 IMPROPERS
Info: 0 CROSSTERMS
Info: 0 EXCLUSIONS
Info: 33 FIXED ATOMS
Info: 5881 RIGID BONDS
Info: 16 RIGID BONDS BETWEEN FIXED ATOMS
Info: ALCH: 0 ATOMS TO DISAPPEAR IN FINAL STATE
Info: ALCH: 33 ATOMS TO APPEAR IN FINAL STATE
Info: 11730 DEGREES OF FREEDOM
Info: 1972 HYDROGEN GROUPS
Info: 4 ATOMS IN LARGEST HYDROGEN GROUP
Info: 1972 MIGRATION GROUPS
Info: 4 ATOMS IN LARGEST MIGRATION GROUP
Info: 17 HYDROGEN GROUPS WITH ALL ATOMS FIXED
Info: TOTAL MASS = 35456.4 amu
Info: TOTAL CHARGE = 7.45058e-09 e
Info: MASS DENSITY = 0.923475 g/cm^3
Info: ATOM DENSITY = 0.0925074 atoms/A^3
Info: REMOVING COM VELOCITY 0.0705035 -0.0690238 0.0689918
Info: NONBONDED TABLE R-SQUARED SPACING: 0.0625
Info: NONBONDED TABLE SIZE: 769 POINTS
TCL: Minimizing for 100 steps
ETITLE: TS BOND ANGLE DIHED IMPRP ELECT VDW BOUNDARY MISC KINETIC TOTAL TEMP POTENTIAL TOTAL3 TEMPAVG PRESSURE GPRESSURE VOLUME PRESSAVG GPRESSAVG
ENERGY: 0 1844.7723 410.1564 0.0000 0.0000 -19588.3345 2274842.9429 0.0000 0.0000 0.0000 2257509.5371 0.0000 2257509.5371 2257509.5371 0.0000 9910442.4960 9916341.8648 63757.0922 9910442.4960 9916341.8648
ENERGY: 20 824.7569 362.4032 0.0000 0.0000 -19929.2442 2502.7827 0.0000 0.0000 0.0000 -16239.3014 0.0000 -16239.3014 -16239.3014 0.0000 -980.6796 1711.6549 63757.0922 -980.6796 1711.6549
ENERGY: 40 1284.2375 410.8726 0.0000 0.0000 -20763.4815 1949.1801 0.0000 0.0000 0.0000 -17119.1913 0.0000 -17119.1913 -17119.1913 0.0000 -3562.6460 -2159.9786 63757.0922 -3562.6460 -2159.9786
ENERGY: 60 552.2110 862.2915 0.0000 0.0000 -21917.5953 1630.0710 0.0000 0.0000 0.0000 -18873.0217 0.0000 -18873.0217 -18873.0217 0.0000 -3568.1754 -5084.6777 63757.0922 -3568.1754 -5084.6777
ENERGY: 80 583.0223 411.3342 0.0000 0.0000 -22585.5168 1564.4788 0.0000 0.0000 0.0000 -20026.6815 0.0000 -20026.6815 -20026.6815 0.0000 -4781.9008 -6326.7325 63757.0922 -4781.9008 -6326.7325
ENERGY: 100 575.4401 462.6625 0.0000 0.0000 -23321.5982 1539.0386 0.0000 0.0000 0.0000 -20744.4569 0.0000 -20744.4569 -20744.4569 0.0000 -6282.8689 -7403.1630 63757.0922 -6282.8689 -7403.1630
TCL: Running FEP window   1: Lambda1 0.0    Lambda2 0.0    [dLambda 0.0   ]
TCL: Setting parameter firsttimestep to 0
TCL: Setting parameter alchLambda to 0.0
Info: NONBONDED TABLE R-SQUARED SPACING: 0.0625
Info: NONBONDED TABLE SIZE: 769 POINTS
TCL: Setting parameter alchLambda2 to 0.0
Info: NONBONDED TABLE R-SQUARED SPACING: 0.0625
Info: NONBONDED TABLE SIZE: 769 POINTS
TCL: Original numsteps 100 will be ignored.
TCL: Running for 100000 steps
ETITLE: TS BOND ANGLE DIHED IMPRP ELECT VDW BOUNDARY MISC KINETIC TOTAL TEMP POTENTIAL TOTAL3 TEMPAVG PRESSURE GPRESSURE VOLUME PRESSAVG GPRESSAVG
ENERGY: 0 0.0000 0.0000 0.0000 0.0000 -21265.7836 1511.0079 0.0000 0.0000 3415.6610 -16339.1147 293.0671 -19754.7757 -16343.8101 293.0671 -4020.2689 -3991.5684 63757.0922 -4020.2689 -3991.5684
ENERGY: 20000 0.0000 0.0000 0.0000 0.0000 -21134.1763 1936.1416 0.0000 0.0000 3403.8621 -15794.1726 292.0548 -19198.0347 -15779.5619 300.3865 -500.3269 -619.0993 58964.7572 15.4602 11.6544
ENERGY: 40000 0.0000 0.0000 0.0000 0.0000 -21157.6379 2000.6370 0.0000 0.0000 3492.7671 -15664.2338 299.6829 -19157.0009 -15659.1026 300.1943 -102.0026 25.5214 58273.4590 -7.6078 -2.5928
ENERGY: 60000 0.0000 0.0000 0.0000 0.0000 -21302.2164 2056.3832 0.0000 0.0000 3528.9681 -15716.8651 302.7890 -19245.8333 -15713.7446 300.4701 12.9527 136.2517 58246.6409 -55.1712 -49.0709
ENERGY: 80000 0.0000 0.0000 0.0000 0.0000 -21126.6155 1923.6624 0.0000 0.0000 3507.2211 -15695.7321 300.9231 -19202.9532 -15677.8270 298.3152 -433.1555 -376.8510 58205.0438 -9.6067 -3.2750
ENERGY: 100000 0.0000 0.0000 0.0000 0.0000 -21223.5516 1963.7851 0.0000 0.0000 3560.4690 -15699.2975 305.4918 -19259.7665 -15697.5596 301.8700 -195.3830 -335.8387 58410.1828 24.9903 35.3117
