Info: SIMULATION PARAMETERS:
Info: TIMESTEP               2
Info: NUMBER OF STEPS        0
Info: STEPS PER CYCLE        20
Info: PERIODIC CELL BASIS 1  39.972 0 0
Info: PERIODIC CELL BASIS 2  0 39.941 0
Info: PERIODIC CELL BASIS 3  0 0 39.935
Info: PERIODIC CELL CENTER   0.0573 0.0982 -0.162
Info: WRAPPING ALL CLUSTERS AROUND PERIODIC BOUNDARIES ON OUTPUT.
Info: FIRST LDB TIMESTEP     100
Info: LAST LDB TIMESTEP     -1
Info: HOM BACKGROUND SCALING 1
Info: PME BACKGROUND SCALING 1
Info: MIN ATOMS PER PATCH    40
Info: INITIAL TEMPERATURE    300
Info: CENTER OF MASS MOVING INITIALLY? NO
Info: DIELECTRIC             1
Info: EXCLUDE                SCALED ONE-FOUR
Info: 1-4 ELECTROSTATICS SCALED BY 1
Info: MODIFIED 1-4 VDW PARAMETERS WILL BE USED
Info: NO DCD TRAJECTORY OUTPUT
Info: XST FILENAME           equil.xst
Info: XST FREQUENCY          100
Info: NO VELOCITY DCD OUTPUT
Info: NO FORCE DCD OUTPUT
Info: OUTPUT FILENAME        equil
Info: BINARY OUTPUT FILES WILL BE USED
Info: RESTART FILENAME       equil
Info: RESTART FREQUENCY      100
Info: BINARY RESTART FILES WILL BE USED
Info: SWITCHING ACTIVE
Info: SWITCHING ON           10
Info: SWITCHING OFF          12
Info: PAIRLIST DISTANCE      16
Info: PAIRLIST SHRINK RATE   0.01
Info: PAIRLIST GROW RATE     0.01
Info: PAIRLIST TRIGGER       0.3
Info: PAIRLISTS PER CYCLE    2
Info: PAIRLISTS ENABLED
Info: MARGIN                 8
Info: HYDROGEN GROUP CUTOFF  2.8
Info: PATCH DIMENSION        26.8
Info: ENERGY OUTPUT STEPS    100
Info: CROSSTERM ENERGY INCLUDED IN DIHEDRAL
Info: TIMING OUTPUT STEPS    100
Info: PRESSURE OUTPUT STEPS  100
Info: FIXED ATOMS ACTIVE
Info: ALCHEMICAL FEP ON
Info: FEP CURRENT LAMBDA VALUE     0
Info: FEP COMPARISON LAMBDA VALUE  0
Info: FEP VDW SHIFTING COEFFICIENT 5
Info: FEP ELEC. ACTIVE FOR ANNIHILATED PARTICLES BETWEEN LAMBDA = 0 AND LAMBDA = 1
Info: FEP ELEC. ACTIVE FOR EXNIHILATED PARTICLES BETWEEN LAMBDA = 0 AND LAMBDA = 1
Info: FEP VDW ACTIVE FOR ANNIHILATED PARTICLES BETWEEN LAMBDA = 1 AND LAMBDA = 1
Info: FEP VDW ACTIVE FOR EXNIHILATED PARTICLES BETWEEN LAMBDA = 0 AND LAMBDA = 0
Info: LANGEVIN DYNAMICS ACTIVE
Info: LANGEVIN TEMPERATURE   300
Info: LANGEVIN DAMPING COEFFICIENT IS 5 INVERSE PS
Info: LANGEVIN DYNAMICS APPLIED TO HYDROGENS
Info: LANGEVIN PISTON PRESSURE CONTROL ACTIVE
Info:        TARGET PRESSURE IS 1.01325 BAR
Info:     OSCILLATION PERIOD IS 200 FS
Info:             DECAY TIME IS 100 FS
Info:     PISTON TEMPERATURE IS 300 K
Info:       PRESSURE CONTROL IS GROUP-BASED
Info:    INITIAL STRAIN RATE IS 0 0 0
Info:       CELL FLUCTUATION IS ISOTROPIC
Info: PARTICLE MESH EWALD (PME) ACTIVE
Info: PME TOLERANCE               1e-05
Info: PME EWALD COEFFICIENT       0.226635
Info: PME INTERPOLATION ORDER     4
Info: PME GRID DIMENSIONS         40 40 40
Info: PME MAXIMUM GRID SPACING    1
Info: FULL ELECTROSTATIC EVALUATION FREQUENCY      2
Info: USING VERLET I (r-RESPA) MTS SCHEME.
Info: C1 SPLITTING OF LONG RANGE ELECTROSTATICS
Info: PLACING ATOMS IN PATCHES BY HYDROGEN GROUPS
Info: RIGID BONDS TO HYDROGEN : ALL
Info:         ERROR TOLERANCE : 1e-06
Info:          MAX ITERATIONS : 400
Info: RIGID WATER USING SETTLE ALGORITHM
Info: RANDOM NUMBER SEED     1408051440
Info: USE HYDROGEN BONDS?    NO
Info: COORDINATE PDB         glu_solvated.pdb
Info: STRUCTURE FILE         glu_solvated.psf
Info: PARAMETER file: CHARMM format!
Info: PARAMETERS             /homes/jbardhan/Parameters/par_all27_prot_lipid_more.prm
Info: USING ARITHMETIC MEAN TO COMBINE L-J SIGMA PARAMETERS
Info: SUMMARY OF PARAMETERS:
Info: 180 BONDS
Info: 447 ANGLES
Info: 568 DIHEDRAL
Info: 46 IMPROPER
Info: 6 CROSSTERM
Info: 114 VDW
Info: 0 VDW_PAIRS
Info: To read alch data from file: fix.pdb
Info: To read alch flag data from column: 5
Info: STRUCTURE SUMMARY:
Info: 5904 ATOMS
Info: 3944 BONDS
Info: 2004 ANGLES
Info: 56 DIHEDRALS
Info: 5 IMPROPERS
Info: 0 CROSSTERMS
Info: 0 EXCLUSIONS
Info: 27 FIXED ATOMS
Info: 5890 RIGID BONDS
Info: 13 RIGID BONDS BETWEEN FIXED ATOMS
Info: ALCH: 0 ATOMS TO DISAPPEAR IN FINAL STATE
Info: ALCH: 27 ATOMS TO APPEAR IN FINAL STATE
Info: 11754 DEGREES OF FREEDOM
Info: 1973 HYDROGEN GROUPS
Info: 4 ATOMS IN LARGEST HYDROGEN GROUP
Info: 1973 MIGRATION GROUPS
Info: 4 ATOMS IN LARGEST MIGRATION GROUP
Info: 14 HYDROGEN GROUPS WITH ALL ATOMS FIXED
Info: TOTAL MASS = 35493.4 amu
Info: TOTAL CHARGE = 2.23517e-08 e
Info: MASS DENSITY = 0.924438 g/cm^3
Info: ATOM DENSITY = 0.0926015 atoms/A^3
Info: REMOVING COM VELOCITY -0.196354 0.150279 0.136074
Info: NONBONDED TABLE R-SQUARED SPACING: 0.0625
Info: NONBONDED TABLE SIZE: 769 POINTS
TCL: Minimizing for 100 steps
ETITLE: TS BOND ANGLE DIHED IMPRP ELECT VDW BOUNDARY MISC KINETIC TOTAL TEMP POTENTIAL TOTAL3 TEMPAVG PRESSURE GPRESSURE VOLUME PRESSAVG GPRESSAVG
ENERGY: 0 1849.8806 410.5991 0.0000 0.0000 -19651.2506 2274851.4874 0.0000 0.0000 0.0000 2257460.7165 0.0000 2257460.7165 2257460.7165 0.0000 9910491.4858 9916364.9793 63757.0922 9910491.4858 9916364.9793
ENERGY: 20 825.5855 362.9000 0.0000 0.0000 -19993.6516 2511.4016 0.0000 0.0000 0.0000 -16293.7645 0.0000 -16293.7645 -16293.7645 0.0000 -949.9425 1733.2055 63757.0922 -949.9425 1733.2055
ENERGY: 40 1285.1708 410.6397 0.0000 0.0000 -20827.5956 1956.2936 0.0000 0.0000 0.0000 -17175.4915 0.0000 -17175.4915 -17175.4915 0.0000 -3536.2674 -2149.9986 63757.0922 -3536.2674 -2149.9986
ENERGY: 60 553.6261 862.6040 0.0000 0.0000 -21983.8650 1636.1241 0.0000 0.0000 0.0000 -18931.5109 0.0000 -18931.5109 -18931.5109 0.0000 -3567.8041 -5088.7873 63757.0922 -3567.8041 -5088.7873
ENERGY: 80 586.1289 406.3619 0.0000 0.0000 -22652.6446 1569.3958 0.0000 0.0000 0.0000 -20090.7580 0.0000 -20090.7580 -20090.7580 0.0000 -4651.8941 -6346.5228 63757.0922 -4651.8941 -6346.5228
ENERGY: 100 580.7627 500.8567 0.0000 0.0000 -23563.3937 1554.4542 0.0000 0.0000 0.0000 -20927.3201 0.0000 -20927.3201 -20927.3201 0.0000 -7188.0831 -7576.9127 63757.0922 -7188.0831 -7576.9127
TCL: Running FEP window   1: Lambda1 0.0    Lambda2 0.0    [dLambda 0.0   ]
TCL: Setting parameter firsttimestep to 0
TCL: Setting parameter alchLambda to 0.0
Info: NONBONDED TABLE R-SQUARED SPACING: 0.0625
Info: NONBONDED TABLE SIZE: 769 POINTS
TCL: Setting parameter alchLambda2 to 0.0
Info: NONBONDED TABLE R-SQUARED SPACING: 0.0625
Info: NONBONDED TABLE SIZE: 769 POINTS
TCL: Original numsteps 100 will be ignored.
TCL: Running for 100000 steps
ETITLE: TS BOND ANGLE DIHED IMPRP ELECT VDW BOUNDARY MISC KINETIC TOTAL TEMP POTENTIAL TOTAL3 TEMPAVG PRESSURE GPRESSURE VOLUME PRESSAVG GPRESSAVG
ENERGY: 0 0.0000 0.0000 0.0000 0.0000 -21416.8196 1525.3902 0.0000 0.0000 3484.4501 -16406.9793 298.3589 -19891.4294 -16411.6559 298.3589 -4087.4507 -4059.0654 63757.0922 -4087.4507 -4059.0654
ENERGY: 20000 0.0000 0.0000 0.0000 0.0000 -21159.8408 2005.4362 0.0000 0.0000 3478.4331 -15675.9715 297.8437 -19154.4046 -15669.0420 300.4917 176.8073 151.1222 58019.0556 -8.9693 -10.3127
ENERGY: 40000 0.0000 0.0000 0.0000 0.0000 -21207.3831 1949.4470 0.0000 0.0000 3536.2439 -15721.6923 302.7938 -19257.9362 -15713.0031 303.3722 -344.7939 -265.3309 58258.2686 42.0226 45.4138
ENERGY: 60000 0.0000 0.0000 0.0000 0.0000 -21152.6164 2015.0318 0.0000 0.0000 3489.6099 -15647.9747 298.8007 -19137.5846 -15642.4089 302.4442 133.5092 126.1044 58604.5617 74.6022 78.5247
ENERGY: 80000 0.0000 0.0000 0.0000 0.0000 -21389.3217 2124.0577 0.0000 0.0000 3505.0977 -15760.1663 300.1268 -19265.2640 -15757.3631 303.4394 215.6152 322.9584 58564.3985 22.9901 25.3862
ENERGY: 100000 0.0000 0.0000 0.0000 0.0000 -21204.8430 1930.1944 0.0000 0.0000 3452.7100 -15821.9386 295.6411 -19274.6486 -15812.5220 300.4563 -313.0781 -226.5626 57772.7218 53.0001 50.4227
