Info: SIMULATION PARAMETERS:
Info: TIMESTEP               2
Info: NUMBER OF STEPS        0
Info: STEPS PER CYCLE        20
Info: PERIODIC CELL BASIS 1  39.972 0 0
Info: PERIODIC CELL BASIS 2  0 39.941 0
Info: PERIODIC CELL BASIS 3  0 0 39.935
Info: PERIODIC CELL CENTER   0.0552 0.101 -0.164
Info: WRAPPING ALL CLUSTERS AROUND PERIODIC BOUNDARIES ON OUTPUT.
Info: FIRST LDB TIMESTEP     100
Info: LAST LDB TIMESTEP     -1
Info: HOM BACKGROUND SCALING 1
Info: PME BACKGROUND SCALING 1
Info: MIN ATOMS PER PATCH    40
Info: INITIAL TEMPERATURE    300
Info: CENTER OF MASS MOVING INITIALLY? NO
Info: DIELECTRIC             1
Info: EXCLUDE                SCALED ONE-FOUR
Info: 1-4 ELECTROSTATICS SCALED BY 1
Info: MODIFIED 1-4 VDW PARAMETERS WILL BE USED
Info: NO DCD TRAJECTORY OUTPUT
Info: XST FILENAME           equil.xst
Info: XST FREQUENCY          100
Info: NO VELOCITY DCD OUTPUT
Info: NO FORCE DCD OUTPUT
Info: OUTPUT FILENAME        equil
Info: BINARY OUTPUT FILES WILL BE USED
Info: RESTART FILENAME       equil
Info: RESTART FREQUENCY      100
Info: BINARY RESTART FILES WILL BE USED
Info: SWITCHING ACTIVE
Info: SWITCHING ON           10
Info: SWITCHING OFF          12
Info: PAIRLIST DISTANCE      16
Info: PAIRLIST SHRINK RATE   0.01
Info: PAIRLIST GROW RATE     0.01
Info: PAIRLIST TRIGGER       0.3
Info: PAIRLISTS PER CYCLE    2
Info: PAIRLISTS ENABLED
Info: MARGIN                 8
Info: HYDROGEN GROUP CUTOFF  2.8
Info: PATCH DIMENSION        26.8
Info: ENERGY OUTPUT STEPS    100
Info: CROSSTERM ENERGY INCLUDED IN DIHEDRAL
Info: TIMING OUTPUT STEPS    100
Info: PRESSURE OUTPUT STEPS  100
Info: FIXED ATOMS ACTIVE
Info: ALCHEMICAL FEP ON
Info: FEP CURRENT LAMBDA VALUE     0
Info: FEP COMPARISON LAMBDA VALUE  0
Info: FEP VDW SHIFTING COEFFICIENT 5
Info: FEP ELEC. ACTIVE FOR ANNIHILATED PARTICLES BETWEEN LAMBDA = 0 AND LAMBDA = 1
Info: FEP ELEC. ACTIVE FOR EXNIHILATED PARTICLES BETWEEN LAMBDA = 0 AND LAMBDA = 1
Info: FEP VDW ACTIVE FOR ANNIHILATED PARTICLES BETWEEN LAMBDA = 1 AND LAMBDA = 1
Info: FEP VDW ACTIVE FOR EXNIHILATED PARTICLES BETWEEN LAMBDA = 0 AND LAMBDA = 0
Info: LANGEVIN DYNAMICS ACTIVE
Info: LANGEVIN TEMPERATURE   300
Info: LANGEVIN DAMPING COEFFICIENT IS 5 INVERSE PS
Info: LANGEVIN DYNAMICS APPLIED TO HYDROGENS
Info: LANGEVIN PISTON PRESSURE CONTROL ACTIVE
Info:        TARGET PRESSURE IS 1.01325 BAR
Info:     OSCILLATION PERIOD IS 200 FS
Info:             DECAY TIME IS 100 FS
Info:     PISTON TEMPERATURE IS 300 K
Info:       PRESSURE CONTROL IS GROUP-BASED
Info:    INITIAL STRAIN RATE IS 0 0 0
Info:       CELL FLUCTUATION IS ISOTROPIC
Info: PARTICLE MESH EWALD (PME) ACTIVE
Info: PME TOLERANCE               1e-05
Info: PME EWALD COEFFICIENT       0.226635
Info: PME INTERPOLATION ORDER     4
Info: PME GRID DIMENSIONS         40 40 40
Info: PME MAXIMUM GRID SPACING    1
Info: FULL ELECTROSTATIC EVALUATION FREQUENCY      2
Info: USING VERLET I (r-RESPA) MTS SCHEME.
Info: C1 SPLITTING OF LONG RANGE ELECTROSTATICS
Info: PLACING ATOMS IN PATCHES BY HYDROGEN GROUPS
Info: RIGID BONDS TO HYDROGEN : ALL
Info:         ERROR TOLERANCE : 1e-06
Info:          MAX ITERATIONS : 400
Info: RIGID WATER USING SETTLE ALGORITHM
Info: RANDOM NUMBER SEED     1408057914
Info: USE HYDROGEN BONDS?    NO
Info: COORDINATE PDB         lys_solvated.pdb
Info: STRUCTURE FILE         lys_solvated.psf
Info: PARAMETER file: CHARMM format!
Info: PARAMETERS             /Users/jbardhan/Parameters/par_all27_prot_lipid_more.prm
Info: USING ARITHMETIC MEAN TO COMBINE L-J SIGMA PARAMETERS
Info: SUMMARY OF PARAMETERS:
Info: 180 BONDS
Info: 447 ANGLES
Info: 568 DIHEDRAL
Info: 46 IMPROPER
Info: 6 CROSSTERM
Info: 114 VDW
Info: 0 VDW_PAIRS
Info: 0 NBTHOLE_PAIRS
Info: To read alchdata from file: fix.pdb
Info: To read alchflag data from column: 5
Info: STRUCTURE SUMMARY:
Info: 5908 ATOMS
Info: 3949 BONDS
Info: 2018 ANGLES
Info: 77 DIHEDRALS
Info: 4 IMPROPERS
Info: 0 CROSSTERMS
Info: 0 EXCLUSIONS
Info: 34 FIXED ATOMS
Info: 5894 RIGID BONDS
Info: 20 RIGID BONDS BETWEEN FIXED ATOMS
Info: ALCH: 0 ATOMS TO DISAPPEAR IN FINAL STATE
Info: ALCH: 34 ATOMS TO APPEAR IN FINAL STATE
Info: 11748 DEGREES OF FREEDOM
Info: 1972 HYDROGEN GROUPS
Info: 4 ATOMS IN LARGEST HYDROGEN GROUP
Info: 1972 MIGRATION GROUPS
Info: 4 ATOMS IN LARGEST MIGRATION GROUP
Info: 14 HYDROGEN GROUPS WITH ALL ATOMS FIXED
Info: TOTAL MASS = 35476.4 amu
Info: TOTAL CHARGE = 1 e
Info: MASS DENSITY = 0.923997 g/cm^3
Info: ATOM DENSITY = 0.0926642 atoms/A^3
Info: REMOVING COM VELOCITY 0.0140432 -0.229711 -0.0300726
Info: NONBONDED TABLE R-SQUARED SPACING: 0.0625
Info: NONBONDED TABLE SIZE: 769 POINTS
TCL: Minimizing for 100 steps
ETITLE: TS BOND ANGLE DIHED IMPRP ELECT VDW BOUNDARY MISC KINETIC TOTAL TEMP POTENTIAL TOTAL3 TEMPAVG PRESSURE GPRESSURE VOLUME PRESSAVG GPRESSAVG
ENERGY: 0 1845.2187 410.0928 0.0000 0.0000 -19593.7779 2274846.7967 0.0000 0.0000 0.0000 2257508.3302 0.0000 2257508.3302 2257508.3302 0.0000 9910468.9812 9916341.9154 63757.0922 9910468.9812 9916341.9154
ENERGY: 20 824.9659 362.6662 0.0000 0.0000 -19935.0270 2506.1868 0.0000 0.0000 0.0000 -16241.2082 0.0000 -16241.2082 -16241.2082 0.0000 -975.6771 1708.9649 63757.0922 -975.6771 1708.9649
ENERGY: 40 1284.0691 411.1095 0.0000 0.0000 -20767.9132 1951.5290 0.0000 0.0000 0.0000 -17121.2055 0.0000 -17121.2055 -17121.2055 0.0000 -3556.4456 -2167.5216 63757.0922 -3556.4456 -2167.5216
ENERGY: 60 553.0403 862.2358 0.0000 0.0000 -21919.7537 1630.5229 0.0000 0.0000 0.0000 -18873.9547 0.0000 -18873.9547 -18873.9547 0.0000 -3585.0987 -5101.0012 63757.0922 -3585.0987 -5101.0012
ENERGY: 80 582.7850 410.9202 0.0000 0.0000 -22585.0005 1561.8742 0.0000 0.0000 0.0000 -20029.4211 0.0000 -20029.4211 -20029.4211 0.0000 -4800.7359 -6358.1354 63757.0922 -4800.7359 -6358.1354
ENERGY: 100 631.5045 542.1817 0.0000 0.0000 -23623.1916 1555.4774 0.0000 0.0000 0.0000 -20894.0279 0.0000 -20894.0279 -20894.0279 0.0000 -8032.1611 -7695.2029 63757.0922 -8032.1611 -7695.2029
TCL: Running FEP window   1: Lambda1 0.0    Lambda2 0.0    [dLambda 0.0   ]
TCL: Setting parameter firsttimestep to 0
TCL: Setting parameter alchLambda to 0.0
Info: NONBONDED TABLE R-SQUARED SPACING: 0.0625
Info: NONBONDED TABLE SIZE: 769 POINTS
TCL: Setting parameter alchLambda2 to 0.0
Info: NONBONDED TABLE R-SQUARED SPACING: 0.0625
Info: NONBONDED TABLE SIZE: 769 POINTS
TCL: Original numsteps 100 will be ignored.
TCL: Running for 100000 steps
ETITLE: TS BOND ANGLE DIHED IMPRP ELECT VDW BOUNDARY MISC KINETIC TOTAL TEMP POTENTIAL TOTAL3 TEMPAVG PRESSURE GPRESSURE VOLUME PRESSAVG GPRESSAVG
ENERGY: 0 0.0000 0.0000 0.0000 0.0000 -21403.8814 1525.3971 0.0000 0.0000 3457.2348 -16421.2496 296.1797 -19878.4843 -16426.1907 296.1797 -4124.1558 -4095.8986 63757.0922 -4124.1558 -4095.8986
ENERGY: 20000 0.0000 0.0000 0.0000 0.0000 -21247.9773 2036.2377 0.0000 0.0000 3518.6024 -15693.1371 301.4371 -19211.7396 -15687.9027 303.4421 39.0177 91.7868 58247.2449 -38.3597 -33.5102
ENERGY: 40000 0.0000 0.0000 0.0000 0.0000 -21312.8235 2035.6690 0.0000 0.0000 3523.6234 -15753.5311 301.8672 -19277.1545 -15740.9806 302.8522 75.1250 90.3950 57942.9560 28.8839 31.5789
ENERGY: 60000 0.0000 0.0000 0.0000 0.0000 -21285.0009 2041.9680 0.0000 0.0000 3500.7140 -15742.3189 299.9046 -19243.0329 -15739.4118 297.0488 -16.7375 51.8993 58073.1569 -34.4019 -34.5897
ENERGY: 80000 0.0000 0.0000 0.0000 0.0000 -21245.7642 2043.1332 0.0000 0.0000 3508.2932 -15694.3378 300.5539 -19202.6310 -15693.8772 298.7351 272.0510 315.2052 57839.7862 20.6063 19.6417
ENERGY: 100000 0.0000 0.0000 0.0000 0.0000 -21252.1887 2026.7326 0.0000 0.0000 3525.7786 -15699.6775 302.0518 -19225.4561 -15695.6989 301.1845 59.0883 195.8474 57985.8896 -49.7884 -43.4007
