Info: SIMULATION PARAMETERS:
Info: TIMESTEP               2
Info: NUMBER OF STEPS        0
Info: STEPS PER CYCLE        20
Info: PERIODIC CELL BASIS 1  39.972 0 0
Info: PERIODIC CELL BASIS 2  0 39.941 0
Info: PERIODIC CELL BASIS 3  0 0 39.935
Info: PERIODIC CELL CENTER   0.0573 0.0982 -0.162
Info: WRAPPING ALL CLUSTERS AROUND PERIODIC BOUNDARIES ON OUTPUT.
Info: FIRST LDB TIMESTEP     100
Info: LAST LDB TIMESTEP     -1
Info: HOM BACKGROUND SCALING 1
Info: PME BACKGROUND SCALING 1
Info: MIN ATOMS PER PATCH    40
Info: INITIAL TEMPERATURE    300
Info: CENTER OF MASS MOVING INITIALLY? NO
Info: DIELECTRIC             1
Info: EXCLUDE                SCALED ONE-FOUR
Info: 1-4 ELECTROSTATICS SCALED BY 1
Info: MODIFIED 1-4 VDW PARAMETERS WILL BE USED
Info: NO DCD TRAJECTORY OUTPUT
Info: XST FILENAME           equil.xst
Info: XST FREQUENCY          100
Info: NO VELOCITY DCD OUTPUT
Info: NO FORCE DCD OUTPUT
Info: OUTPUT FILENAME        equil
Info: BINARY OUTPUT FILES WILL BE USED
Info: RESTART FILENAME       equil
Info: RESTART FREQUENCY      100
Info: BINARY RESTART FILES WILL BE USED
Info: SWITCHING ACTIVE
Info: SWITCHING ON           10
Info: SWITCHING OFF          12
Info: PAIRLIST DISTANCE      16
Info: PAIRLIST SHRINK RATE   0.01
Info: PAIRLIST GROW RATE     0.01
Info: PAIRLIST TRIGGER       0.3
Info: PAIRLISTS PER CYCLE    2
Info: PAIRLISTS ENABLED
Info: MARGIN                 8
Info: HYDROGEN GROUP CUTOFF  2.8
Info: PATCH DIMENSION        26.8
Info: ENERGY OUTPUT STEPS    100
Info: CROSSTERM ENERGY INCLUDED IN DIHEDRAL
Info: TIMING OUTPUT STEPS    100
Info: PRESSURE OUTPUT STEPS  100
Info: FIXED ATOMS ACTIVE
Info: ALCHEMICAL FEP ON
Info: FEP CURRENT LAMBDA VALUE     0
Info: FEP COMPARISON LAMBDA VALUE  0
Info: FEP VDW SHIFTING COEFFICIENT 5
Info: FEP ELEC. ACTIVE FOR ANNIHILATED PARTICLES BETWEEN LAMBDA = 0 AND LAMBDA = 1
Info: FEP ELEC. ACTIVE FOR EXNIHILATED PARTICLES BETWEEN LAMBDA = 0 AND LAMBDA = 1
Info: FEP VDW ACTIVE FOR ANNIHILATED PARTICLES BETWEEN LAMBDA = 1 AND LAMBDA = 1
Info: FEP VDW ACTIVE FOR EXNIHILATED PARTICLES BETWEEN LAMBDA = 0 AND LAMBDA = 0
Info: LANGEVIN DYNAMICS ACTIVE
Info: LANGEVIN TEMPERATURE   300
Info: LANGEVIN DAMPING COEFFICIENT IS 5 INVERSE PS
Info: LANGEVIN DYNAMICS APPLIED TO HYDROGENS
Info: LANGEVIN PISTON PRESSURE CONTROL ACTIVE
Info:        TARGET PRESSURE IS 1.01325 BAR
Info:     OSCILLATION PERIOD IS 200 FS
Info:             DECAY TIME IS 100 FS
Info:     PISTON TEMPERATURE IS 300 K
Info:       PRESSURE CONTROL IS GROUP-BASED
Info:    INITIAL STRAIN RATE IS 0 0 0
Info:       CELL FLUCTUATION IS ISOTROPIC
Info: PARTICLE MESH EWALD (PME) ACTIVE
Info: PME TOLERANCE               1e-05
Info: PME EWALD COEFFICIENT       0.226635
Info: PME INTERPOLATION ORDER     4
Info: PME GRID DIMENSIONS         40 40 40
Info: PME MAXIMUM GRID SPACING    1
Info: FULL ELECTROSTATIC EVALUATION FREQUENCY      2
Info: USING VERLET I (r-RESPA) MTS SCHEME.
Info: C1 SPLITTING OF LONG RANGE ELECTROSTATICS
Info: PLACING ATOMS IN PATCHES BY HYDROGEN GROUPS
Info: RIGID BONDS TO HYDROGEN : ALL
Info:         ERROR TOLERANCE : 1e-06
Info:          MAX ITERATIONS : 400
Info: RIGID WATER USING SETTLE ALGORITHM
Info: RANDOM NUMBER SEED     1408038550
Info: USE HYDROGEN BONDS?    NO
Info: COORDINATE PDB         glu_solvated.pdb
Info: STRUCTURE FILE         glu_solvated.psf
Info: PARAMETER file: CHARMM format!
Info: PARAMETERS             /Users/jbardhan/Parameters/par_all27_prot_lipid_more.prm
Info: USING ARITHMETIC MEAN TO COMBINE L-J SIGMA PARAMETERS
Info: SUMMARY OF PARAMETERS:
Info: 180 BONDS
Info: 447 ANGLES
Info: 568 DIHEDRAL
Info: 46 IMPROPER
Info: 6 CROSSTERM
Info: 114 VDW
Info: 0 VDW_PAIRS
Info: 0 NBTHOLE_PAIRS
Info: To read alchdata from file: fix.pdb
Info: To read alchflag data from column: 5
Info: STRUCTURE SUMMARY:
Info: 5904 ATOMS
Info: 3944 BONDS
Info: 2004 ANGLES
Info: 56 DIHEDRALS
Info: 5 IMPROPERS
Info: 0 CROSSTERMS
Info: 0 EXCLUSIONS
Info: 27 FIXED ATOMS
Info: 5890 RIGID BONDS
Info: 13 RIGID BONDS BETWEEN FIXED ATOMS
Info: ALCH: 0 ATOMS TO DISAPPEAR IN FINAL STATE
Info: ALCH: 27 ATOMS TO APPEAR IN FINAL STATE
Info: 11754 DEGREES OF FREEDOM
Info: 1973 HYDROGEN GROUPS
Info: 4 ATOMS IN LARGEST HYDROGEN GROUP
Info: 1973 MIGRATION GROUPS
Info: 4 ATOMS IN LARGEST MIGRATION GROUP
Info: 14 HYDROGEN GROUPS WITH ALL ATOMS FIXED
Info: TOTAL MASS = 35493.4 amu
Info: TOTAL CHARGE = -1 e
Info: MASS DENSITY = 0.924438 g/cm^3
Info: ATOM DENSITY = 0.0926015 atoms/A^3
Info: REMOVING COM VELOCITY -0.10446 -0.0656566 -0.12061
Info: NONBONDED TABLE R-SQUARED SPACING: 0.0625
Info: NONBONDED TABLE SIZE: 769 POINTS
TCL: Minimizing for 100 steps
ETITLE: TS BOND ANGLE DIHED IMPRP ELECT VDW BOUNDARY MISC KINETIC TOTAL TEMP POTENTIAL TOTAL3 TEMPAVG PRESSURE GPRESSURE VOLUME PRESSAVG GPRESSAVG
ENERGY: 0 1849.8806 410.5991 0.0000 0.0000 -19655.1055 2274851.4874 0.0000 0.0000 0.0000 2257456.8616 0.0000 2257456.8616 2257456.8616 0.0000 9910487.4415 9916360.9351 63757.0922 9910487.4415 9916360.9351
ENERGY: 20 825.5855 362.9000 0.0000 0.0000 -19997.5066 2511.4016 0.0000 0.0000 0.0000 -16297.6195 0.0000 -16297.6195 -16297.6195 0.0000 -953.9868 1729.1612 63757.0922 -953.9868 1729.1612
ENERGY: 40 1285.1710 410.6397 0.0000 0.0000 -20831.4505 1956.2936 0.0000 0.0000 0.0000 -17179.3462 0.0000 -17179.3462 -17179.3462 0.0000 -3540.3117 -2154.0428 63757.0922 -3540.3117 -2154.0428
ENERGY: 60 553.6261 862.6041 0.0000 0.0000 -21987.7201 1636.1241 0.0000 0.0000 0.0000 -18935.3659 0.0000 -18935.3659 -18935.3659 0.0000 -3571.8494 -5092.8318 63757.0922 -3571.8494 -5092.8318
ENERGY: 80 586.1288 406.3619 0.0000 0.0000 -22656.4996 1569.3959 0.0000 0.0000 0.0000 -20094.6130 0.0000 -20094.6130 -20094.6130 0.0000 -4655.9374 -6350.5670 63757.0922 -4655.9374 -6350.5670
ENERGY: 100 580.7627 500.8569 0.0000 0.0000 -23567.2493 1554.4543 0.0000 0.0000 0.0000 -20931.1754 0.0000 -20931.1754 -20931.1754 0.0000 -7192.1277 -7580.9574 63757.0922 -7192.1277 -7580.9574
TCL: Running FEP window   1: Lambda1 0.0    Lambda2 0.0    [dLambda 0.0   ]
TCL: Setting parameter firsttimestep to 0
TCL: Setting parameter alchLambda to 0.0
Info: NONBONDED TABLE R-SQUARED SPACING: 0.0625
Info: NONBONDED TABLE SIZE: 769 POINTS
TCL: Setting parameter alchLambda2 to 0.0
Info: NONBONDED TABLE R-SQUARED SPACING: 0.0625
Info: NONBONDED TABLE SIZE: 769 POINTS
TCL: Original numsteps 100 will be ignored.
TCL: Running for 100000 steps
ETITLE: TS BOND ANGLE DIHED IMPRP ELECT VDW BOUNDARY MISC KINETIC TOTAL TEMP POTENTIAL TOTAL3 TEMPAVG PRESSURE GPRESSURE VOLUME PRESSAVG GPRESSAVG
ENERGY: 0 0.0000 0.0000 0.0000 0.0000 -21420.6749 1525.3903 0.0000 0.0000 3571.0132 -16324.2714 305.7709 -19895.2847 -16329.3984 305.7709 -4061.3501 -4032.9648 63757.0922 -4061.3501 -4032.9648
ENERGY: 20000 0.0000 0.0000 0.0000 0.0000 -21133.1552 2015.1977 0.0000 0.0000 3530.6201 -15587.3375 302.3122 -19117.9575 -15580.1752 307.3796 400.4499 289.4549 58285.5022 1.0280 4.9294
ENERGY: 40000 0.0000 0.0000 0.0000 0.0000 -21254.9290 1973.0031 0.0000 0.0000 3515.3895 -15766.5363 301.0081 -19281.9259 -15769.2649 301.4128 -376.4607 -304.7450 58626.0692 -37.1897 -35.3339
ENERGY: 60000 0.0000 0.0000 0.0000 0.0000 -21313.9889 2029.2713 0.0000 0.0000 3551.0362 -15733.6813 304.0604 -19284.7175 -15729.3705 300.0981 -34.5235 48.3707 58543.5871 15.8402 9.8122
ENERGY: 80000 0.0000 0.0000 0.0000 0.0000 -21408.7796 2090.2437 0.0000 0.0000 3508.7171 -15809.8187 300.4367 -19318.5359 -15809.1756 300.6855 155.6076 191.0845 58179.6163 1.9705 2.7445
ENERGY: 100000 0.0000 0.0000 0.0000 0.0000 -21096.1116 1880.1191 0.0000 0.0000 3549.7493 -15666.2433 303.9502 -19215.9925 -15661.7275 301.3080 -722.9867 -594.4045 58571.5799 -47.5293 -38.8381
