Info: SIMULATION PARAMETERS:
Info: TIMESTEP               2
Info: NUMBER OF STEPS        0
Info: STEPS PER CYCLE        20
Info: PERIODIC CELL BASIS 1  39.972 0 0
Info: PERIODIC CELL BASIS 2  0 39.941 0
Info: PERIODIC CELL BASIS 3  0 0 39.935
Info: PERIODIC CELL CENTER   0.0601 0.0979 -0.156
Info: WRAPPING ALL CLUSTERS AROUND PERIODIC BOUNDARIES ON OUTPUT.
Info: FIRST LDB TIMESTEP     100
Info: LAST LDB TIMESTEP     -1
Info: HOM BACKGROUND SCALING 1
Info: PME BACKGROUND SCALING 1
Info: MIN ATOMS PER PATCH    40
Info: INITIAL TEMPERATURE    300
Info: CENTER OF MASS MOVING INITIALLY? NO
Info: DIELECTRIC             1
Info: EXCLUDE                SCALED ONE-FOUR
Info: 1-4 ELECTROSTATICS SCALED BY 1
Info: MODIFIED 1-4 VDW PARAMETERS WILL BE USED
Info: NO DCD TRAJECTORY OUTPUT
Info: XST FILENAME           equil.xst
Info: XST FREQUENCY          100
Info: NO VELOCITY DCD OUTPUT
Info: NO FORCE DCD OUTPUT
Info: OUTPUT FILENAME        equil
Info: BINARY OUTPUT FILES WILL BE USED
Info: RESTART FILENAME       equil
Info: RESTART FREQUENCY      100
Info: BINARY RESTART FILES WILL BE USED
Info: SWITCHING ACTIVE
Info: SWITCHING ON           10
Info: SWITCHING OFF          12
Info: PAIRLIST DISTANCE      16
Info: PAIRLIST SHRINK RATE   0.01
Info: PAIRLIST GROW RATE     0.01
Info: PAIRLIST TRIGGER       0.3
Info: PAIRLISTS PER CYCLE    2
Info: PAIRLISTS ENABLED
Info: MARGIN                 8
Info: HYDROGEN GROUP CUTOFF  2.8
Info: PATCH DIMENSION        26.8
Info: ENERGY OUTPUT STEPS    100
Info: CROSSTERM ENERGY INCLUDED IN DIHEDRAL
Info: TIMING OUTPUT STEPS    100
Info: PRESSURE OUTPUT STEPS  100
Info: FIXED ATOMS ACTIVE
Info: ALCHEMICAL FEP ON
Info: FEP CURRENT LAMBDA VALUE     0
Info: FEP COMPARISON LAMBDA VALUE  0
Info: FEP VDW SHIFTING COEFFICIENT 5
Info: FEP ELEC. ACTIVE FOR ANNIHILATED PARTICLES BETWEEN LAMBDA = 0 AND LAMBDA = 1
Info: FEP ELEC. ACTIVE FOR EXNIHILATED PARTICLES BETWEEN LAMBDA = 0 AND LAMBDA = 1
Info: FEP VDW ACTIVE FOR ANNIHILATED PARTICLES BETWEEN LAMBDA = 1 AND LAMBDA = 1
Info: FEP VDW ACTIVE FOR EXNIHILATED PARTICLES BETWEEN LAMBDA = 0 AND LAMBDA = 0
Info: LANGEVIN DYNAMICS ACTIVE
Info: LANGEVIN TEMPERATURE   300
Info: LANGEVIN DAMPING COEFFICIENT IS 5 INVERSE PS
Info: LANGEVIN DYNAMICS APPLIED TO HYDROGENS
Info: LANGEVIN PISTON PRESSURE CONTROL ACTIVE
Info:        TARGET PRESSURE IS 1.01325 BAR
Info:     OSCILLATION PERIOD IS 200 FS
Info:             DECAY TIME IS 100 FS
Info:     PISTON TEMPERATURE IS 300 K
Info:       PRESSURE CONTROL IS GROUP-BASED
Info:    INITIAL STRAIN RATE IS 0 0 0
Info:       CELL FLUCTUATION IS ISOTROPIC
Info: PARTICLE MESH EWALD (PME) ACTIVE
Info: PME TOLERANCE               1e-05
Info: PME EWALD COEFFICIENT       0.226635
Info: PME INTERPOLATION ORDER     4
Info: PME GRID DIMENSIONS         40 40 40
Info: PME MAXIMUM GRID SPACING    1
Info: FULL ELECTROSTATIC EVALUATION FREQUENCY      2
Info: USING VERLET I (r-RESPA) MTS SCHEME.
Info: C1 SPLITTING OF LONG RANGE ELECTROSTATICS
Info: PLACING ATOMS IN PATCHES BY HYDROGEN GROUPS
Info: RIGID BONDS TO HYDROGEN : ALL
Info:         ERROR TOLERANCE : 1e-06
Info:          MAX ITERATIONS : 400
Info: RIGID WATER USING SETTLE ALGORITHM
Info: RANDOM NUMBER SEED     1408028871
Info: USE HYDROGEN BONDS?    NO
Info: COORDINATE PDB         cys_solvated.pdb
Info: STRUCTURE FILE         cys_solvated.psf
Info: PARAMETER file: CHARMM format!
Info: PARAMETERS             /Users/jbardhan/Parameters/par_all27_prot_lipid_more.prm
Info: USING ARITHMETIC MEAN TO COMBINE L-J SIGMA PARAMETERS
Info: SUMMARY OF PARAMETERS:
Info: 180 BONDS
Info: 447 ANGLES
Info: 568 DIHEDRAL
Info: 46 IMPROPER
Info: 6 CROSSTERM
Info: 114 VDW
Info: 0 VDW_PAIRS
Info: 0 NBTHOLE_PAIRS
Info: To read alchdata from file: fix.pdb
Info: To read alchflag data from column: 5
Info: STRUCTURE SUMMARY:
Info: 5906 ATOMS
Info: 3944 BONDS
Info: 1998 ANGLES
Info: 44 DIHEDRALS
Info: 4 IMPROPERS
Info: 0 CROSSTERMS
Info: 0 EXCLUSIONS
Info: 23 FIXED ATOMS
Info: 5895 RIGID BONDS
Info: 12 RIGID BONDS BETWEEN FIXED ATOMS
Info: ALCH: 0 ATOMS TO DISAPPEAR IN FINAL STATE
Info: ALCH: 23 ATOMS TO APPEAR IN FINAL STATE
Info: 11766 DEGREES OF FREEDOM
Info: 1972 HYDROGEN GROUPS
Info: 4 ATOMS IN LARGEST HYDROGEN GROUP
Info: 1972 MIGRATION GROUPS
Info: 4 ATOMS IN LARGEST MIGRATION GROUP
Info: 11 HYDROGEN GROUPS WITH ALL ATOMS FIXED
Info: TOTAL MASS = 35504.4 amu
Info: TOTAL CHARGE = 2.23517e-08 e
Info: MASS DENSITY = 0.924727 g/cm^3
Info: ATOM DENSITY = 0.0926328 atoms/A^3
Info: REMOVING COM VELOCITY -0.0141852 -0.0988203 0.033998
Info: NONBONDED TABLE R-SQUARED SPACING: 0.0625
Info: NONBONDED TABLE SIZE: 769 POINTS
TCL: Minimizing for 100 steps
ETITLE: TS BOND ANGLE DIHED IMPRP ELECT VDW BOUNDARY MISC KINETIC TOTAL TEMP POTENTIAL TOTAL3 TEMPAVG PRESSURE GPRESSURE VOLUME PRESSAVG GPRESSAVG
ENERGY: 0 1846.7260 411.2134 0.0000 0.0000 -19649.3803 2274846.8696 0.0000 0.0000 0.0000 2257455.4287 0.0000 2257455.4287 2257455.4287 0.0000 9910506.2748 9916303.3699 63757.0922 9910506.2748 9916303.3699
ENERGY: 20 825.0454 363.3990 0.0000 0.0000 -19992.9851 2506.6060 0.0000 0.0000 0.0000 -16297.9347 0.0000 -16297.9347 -16297.9347 0.0000 -978.2237 1670.1182 63757.0922 -978.2237 1670.1182
ENERGY: 40 1283.0841 411.6948 0.0000 0.0000 -20825.8506 1952.1874 0.0000 0.0000 0.0000 -17178.8843 0.0000 -17178.8843 -17178.8843 0.0000 -3564.9201 -2205.9440 63757.0922 -3564.9201 -2205.9440
ENERGY: 60 554.7968 863.3328 0.0000 0.0000 -21980.2363 1632.2451 0.0000 0.0000 0.0000 -18929.8616 0.0000 -18929.8616 -18929.8616 0.0000 -3633.1638 -5137.4461 63757.0922 -3633.1638 -5137.4461
ENERGY: 80 587.9522 407.4435 0.0000 0.0000 -22645.4686 1564.6151 0.0000 0.0000 0.0000 -20085.4578 0.0000 -20085.4578 -20085.4578 0.0000 -4718.7635 -6391.8537 63757.0922 -4718.7635 -6391.8537
ENERGY: 100 577.9624 462.7116 0.0000 0.0000 -23384.1964 1539.6079 0.0000 0.0000 0.0000 -20803.9145 0.0000 -20803.9145 -20803.9145 0.0000 -6454.7479 -7467.3554 63757.0922 -6454.7479 -7467.3554
TCL: Running FEP window   1: Lambda1 0.0    Lambda2 0.0    [dLambda 0.0   ]
TCL: Setting parameter firsttimestep to 0
TCL: Setting parameter alchLambda to 0.0
Info: NONBONDED TABLE R-SQUARED SPACING: 0.0625
Info: NONBONDED TABLE SIZE: 769 POINTS
TCL: Setting parameter alchLambda2 to 0.0
Info: NONBONDED TABLE R-SQUARED SPACING: 0.0625
Info: NONBONDED TABLE SIZE: 769 POINTS
TCL: Original numsteps 100 will be ignored.
TCL: Running for 100000 steps
ETITLE: TS BOND ANGLE DIHED IMPRP ELECT VDW BOUNDARY MISC KINETIC TOTAL TEMP POTENTIAL TOTAL3 TEMPAVG PRESSURE GPRESSURE VOLUME PRESSAVG GPRESSAVG
ENERGY: 0 0.0000 0.0000 0.0000 0.0000 -21317.6121 1511.4736 0.0000 0.0000 3507.3523 -16298.7862 300.0136 -19806.1385 -16304.0233 300.0136 -4045.1121 -4017.0949 63757.0922 -4045.1121 -4017.0949
ENERGY: 20000 0.0000 0.0000 0.0000 0.0000 -21407.5418 2023.1786 0.0000 0.0000 3537.5999 -15846.7632 302.6009 -19384.3632 -15841.5195 300.2839 -157.5880 -134.4364 58081.9340 -67.7061 -75.8790
ENERGY: 40000 0.0000 0.0000 0.0000 0.0000 -21190.5347 1915.9036 0.0000 0.0000 3532.0207 -15742.6104 302.1237 -19274.6311 -15733.9849 299.1688 -675.8753 -618.5745 58614.9512 -1.2287 -4.2808
ENERGY: 60000 0.0000 0.0000 0.0000 0.0000 -21312.6599 2072.5531 0.0000 0.0000 3454.2964 -15785.8103 295.4753 -19240.1067 -15777.9099 300.1983 68.9836 117.2896 58344.9927 47.9169 46.0231
ENERGY: 80000 0.0000 0.0000 0.0000 0.0000 -21221.9891 2059.8386 0.0000 0.0000 3459.9592 -15702.1914 295.9597 -19162.1505 -15696.2152 303.1316 351.7538 391.9174 58078.1399 -28.6202 -36.6595
ENERGY: 100000 0.0000 0.0000 0.0000 0.0000 -21518.4977 2100.0337 0.0000 0.0000 3501.1165 -15917.3475 299.4802 -19418.4640 -15905.3245 298.4028 94.0031 169.6916 58223.6381 34.4368 33.7143
