Info: SIMULATION PARAMETERS:
Info: TIMESTEP               2
Info: NUMBER OF STEPS        0
Info: STEPS PER CYCLE        20
Info: PERIODIC CELL BASIS 1  39.972 0 0
Info: PERIODIC CELL BASIS 2  0 39.941 0
Info: PERIODIC CELL BASIS 3  0 0 39.935
Info: PERIODIC CELL CENTER   0.058 0.0975 -0.161
Info: WRAPPING ALL CLUSTERS AROUND PERIODIC BOUNDARIES ON OUTPUT.
Info: FIRST LDB TIMESTEP     100
Info: LAST LDB TIMESTEP     -1
Info: HOM BACKGROUND SCALING 1
Info: PME BACKGROUND SCALING 1
Info: MIN ATOMS PER PATCH    40
Info: INITIAL TEMPERATURE    300
Info: CENTER OF MASS MOVING INITIALLY? NO
Info: DIELECTRIC             1
Info: EXCLUDE                SCALED ONE-FOUR
Info: 1-4 ELECTROSTATICS SCALED BY 1
Info: MODIFIED 1-4 VDW PARAMETERS WILL BE USED
Info: NO DCD TRAJECTORY OUTPUT
Info: XST FILENAME           equil.xst
Info: XST FREQUENCY          100
Info: NO VELOCITY DCD OUTPUT
Info: NO FORCE DCD OUTPUT
Info: OUTPUT FILENAME        equil
Info: BINARY OUTPUT FILES WILL BE USED
Info: RESTART FILENAME       equil
Info: RESTART FREQUENCY      100
Info: BINARY RESTART FILES WILL BE USED
Info: SWITCHING ACTIVE
Info: SWITCHING ON           10
Info: SWITCHING OFF          12
Info: PAIRLIST DISTANCE      16
Info: PAIRLIST SHRINK RATE   0.01
Info: PAIRLIST GROW RATE     0.01
Info: PAIRLIST TRIGGER       0.3
Info: PAIRLISTS PER CYCLE    2
Info: PAIRLISTS ENABLED
Info: MARGIN                 8
Info: HYDROGEN GROUP CUTOFF  2.8
Info: PATCH DIMENSION        26.8
Info: ENERGY OUTPUT STEPS    100
Info: CROSSTERM ENERGY INCLUDED IN DIHEDRAL
Info: TIMING OUTPUT STEPS    100
Info: PRESSURE OUTPUT STEPS  100
Info: FIXED ATOMS ACTIVE
Info: ALCHEMICAL FEP ON
Info: FEP CURRENT LAMBDA VALUE     0
Info: FEP COMPARISON LAMBDA VALUE  0
Info: FEP VDW SHIFTING COEFFICIENT 5
Info: FEP ELEC. ACTIVE FOR ANNIHILATED PARTICLES BETWEEN LAMBDA = 0 AND LAMBDA = 1
Info: FEP ELEC. ACTIVE FOR EXNIHILATED PARTICLES BETWEEN LAMBDA = 0 AND LAMBDA = 1
Info: FEP VDW ACTIVE FOR ANNIHILATED PARTICLES BETWEEN LAMBDA = 1 AND LAMBDA = 1
Info: FEP VDW ACTIVE FOR EXNIHILATED PARTICLES BETWEEN LAMBDA = 0 AND LAMBDA = 0
Info: LANGEVIN DYNAMICS ACTIVE
Info: LANGEVIN TEMPERATURE   300
Info: LANGEVIN DAMPING COEFFICIENT IS 5 INVERSE PS
Info: LANGEVIN DYNAMICS APPLIED TO HYDROGENS
Info: LANGEVIN PISTON PRESSURE CONTROL ACTIVE
Info:        TARGET PRESSURE IS 1.01325 BAR
Info:     OSCILLATION PERIOD IS 200 FS
Info:             DECAY TIME IS 100 FS
Info:     PISTON TEMPERATURE IS 300 K
Info:       PRESSURE CONTROL IS GROUP-BASED
Info:    INITIAL STRAIN RATE IS 0 0 0
Info:       CELL FLUCTUATION IS ISOTROPIC
Info: PARTICLE MESH EWALD (PME) ACTIVE
Info: PME TOLERANCE               1e-05
Info: PME EWALD COEFFICIENT       0.226635
Info: PME INTERPOLATION ORDER     4
Info: PME GRID DIMENSIONS         40 40 40
Info: PME MAXIMUM GRID SPACING    1
Info: FULL ELECTROSTATIC EVALUATION FREQUENCY      2
Info: USING VERLET I (r-RESPA) MTS SCHEME.
Info: C1 SPLITTING OF LONG RANGE ELECTROSTATICS
Info: PLACING ATOMS IN PATCHES BY HYDROGEN GROUPS
Info: RIGID BONDS TO HYDROGEN : ALL
Info:         ERROR TOLERANCE : 1e-06
Info:          MAX ITERATIONS : 400
Info: RIGID WATER USING SETTLE ALGORITHM
Info: RANDOM NUMBER SEED     1407948003
Info: USE HYDROGEN BONDS?    NO
Info: COORDINATE PDB         arg_solvated.pdb
Info: STRUCTURE FILE         arg_solvated.psf
Info: PARAMETER file: CHARMM format!
Info: PARAMETERS             /Users/jbardhan/Parameters/par_all27_prot_lipid_more.prm
Info: USING ARITHMETIC MEAN TO COMBINE L-J SIGMA PARAMETERS
Info: SUMMARY OF PARAMETERS:
Info: 180 BONDS
Info: 447 ANGLES
Info: 568 DIHEDRAL
Info: 46 IMPROPER
Info: 6 CROSSTERM
Info: 114 VDW
Info: 0 VDW_PAIRS
Info: 0 NBTHOLE_PAIRS
Info: To read alchdata from file: fix.pdb
Info: To read alchflag data from column: 5
Info: STRUCTURE SUMMARY:
Info: 5907 ATOMS
Info: 3949 BONDS
Info: 2017 ANGLES
Info: 77 DIHEDRALS
Info: 5 IMPROPERS
Info: 0 CROSSTERMS
Info: 0 EXCLUSIONS
Info: 36 FIXED ATOMS
Info: 5891 RIGID BONDS
Info: 20 RIGID BONDS BETWEEN FIXED ATOMS
Info: ALCH: 0 ATOMS TO DISAPPEAR IN FINAL STATE
Info: ALCH: 36 ATOMS TO APPEAR IN FINAL STATE
Info: 11742 DEGREES OF FREEDOM
Info: 1973 HYDROGEN GROUPS
Info: 4 ATOMS IN LARGEST HYDROGEN GROUP
Info: 1973 MIGRATION GROUPS
Info: 4 ATOMS IN LARGEST MIGRATION GROUP
Info: 16 HYDROGEN GROUPS WITH ALL ATOMS FIXED
Info: TOTAL MASS = 35486.4 amu
Info: TOTAL CHARGE = -2.23517e-08 e
Info: MASS DENSITY = 0.924258 g/cm^3
Info: ATOM DENSITY = 0.0926485 atoms/A^3
Info: REMOVING COM VELOCITY -0.10341 0.0352701 -0.119737
Info: NONBONDED TABLE R-SQUARED SPACING: 0.0625
Info: NONBONDED TABLE SIZE: 769 POINTS
TCL: Minimizing for 100 steps
ETITLE: TS BOND ANGLE DIHED IMPRP ELECT VDW BOUNDARY MISC KINETIC TOTAL TEMP POTENTIAL TOTAL3 TEMPAVG PRESSURE GPRESSURE VOLUME PRESSAVG GPRESSAVG
ENERGY: 0 1845.7625 409.8449 0.0000 0.0000 -19696.1162 2274847.0769 0.0000 0.0000 0.0000 2257406.5681 0.0000 2257406.5681 2257406.5681 0.0000 9910474.7546 9916338.7964 63757.0922 9910474.7546 9916338.7964
ENERGY: 20 825.1817 362.0592 0.0000 0.0000 -20038.0581 2506.7555 0.0000 0.0000 0.0000 -16344.0617 0.0000 -16344.0617 -16344.0617 0.0000 -975.9252 1706.8928 63757.0922 -975.9252 1706.8928
ENERGY: 40 1284.0146 410.5875 0.0000 0.0000 -20870.5165 1952.0219 0.0000 0.0000 0.0000 -17223.8924 0.0000 -17223.8924 -17223.8924 0.0000 -3555.5554 -2169.2323 63757.0922 -3555.5554 -2169.2323
ENERGY: 60 554.3793 861.1051 0.0000 0.0000 -22021.1137 1631.8300 0.0000 0.0000 0.0000 -18973.7993 0.0000 -18973.7993 -18973.7993 0.0000 -3563.7591 -5096.6465 63757.0922 -3563.7591 -5096.6465
ENERGY: 80 586.2189 406.1431 0.0000 0.0000 -22683.5732 1564.5789 0.0000 0.0000 0.0000 -20126.6323 0.0000 -20126.6323 -20126.6323 0.0000 -4668.7405 -6343.7119 63757.0922 -4668.7405 -6343.7119
ENERGY: 100 632.2534 543.0209 0.0000 0.0000 -23723.5545 1560.2030 0.0000 0.0000 0.0000 -20988.0772 0.0000 -20988.0772 -20988.0772 0.0000 -8011.6024 -7670.5759 63757.0922 -8011.6024 -7670.5759
TCL: Running FEP window   1: Lambda1 0.0    Lambda2 0.0    [dLambda 0.0   ]
TCL: Setting parameter firsttimestep to 0
TCL: Setting parameter alchLambda to 0.0
Info: NONBONDED TABLE R-SQUARED SPACING: 0.0625
Info: NONBONDED TABLE SIZE: 769 POINTS
TCL: Setting parameter alchLambda2 to 0.0
Info: NONBONDED TABLE R-SQUARED SPACING: 0.0625
Info: NONBONDED TABLE SIZE: 769 POINTS
TCL: Original numsteps 100 will be ignored.
TCL: Running for 100000 steps
ETITLE: TS BOND ANGLE DIHED IMPRP ELECT VDW BOUNDARY MISC KINETIC TOTAL TEMP POTENTIAL TOTAL3 TEMPAVG PRESSURE GPRESSURE VOLUME PRESSAVG GPRESSAVG
ENERGY: 0 0.0000 0.0000 0.0000 0.0000 -21502.4751 1530.0126 0.0000 0.0000 3500.8079 -16471.6546 300.0659 -19972.4625 -16476.7676 300.0659 -4093.1907 -4065.8580 63757.0922 -4093.1907 -4065.8580
ENERGY: 20000 0.0000 0.0000 0.0000 0.0000 -21334.8251 1950.7006 0.0000 0.0000 3514.6741 -15869.4504 301.2544 -19384.1245 -15865.7387 302.0532 -324.4653 -304.4305 58125.8711 76.4407 83.3339
ENERGY: 40000 0.0000 0.0000 0.0000 0.0000 -21381.3483 2037.6876 0.0000 0.0000 3502.9398 -15840.7209 300.2486 -19343.6607 -15839.2255 299.7818 137.7212 144.6129 57913.5445 -47.9808 -42.5892
ENERGY: 60000 0.0000 0.0000 0.0000 0.0000 -21362.5462 2082.2453 0.0000 0.0000 3419.9722 -15860.3287 293.1372 -19280.3009 -15865.3304 297.5431 367.8488 360.0542 58167.8857 21.2879 15.6862
ENERGY: 80000 0.0000 0.0000 0.0000 0.0000 -21524.3587 2109.6702 0.0000 0.0000 3547.3480 -15867.3405 304.0550 -19414.6885 -15855.5433 300.6098 88.3979 164.4708 58408.3344 12.1895 19.6820
ENERGY: 100000 0.0000 0.0000 0.0000 0.0000 -21326.5294 2097.2110 0.0000 0.0000 3486.8113 -15742.5071 298.8662 -19229.3184 -15746.9275 300.5552 252.8774 211.6200 58773.3255 -94.8764 -97.8973
