Info: SIMULATION PARAMETERS:
Info: TIMESTEP               2
Info: NUMBER OF STEPS        0
Info: STEPS PER CYCLE        20
Info: PERIODIC CELL BASIS 1  39.972 0 0
Info: PERIODIC CELL BASIS 2  0 39.941 0
Info: PERIODIC CELL BASIS 3  0 0 39.935
Info: PERIODIC CELL CENTER   0.0563 0.096 -0.156
Info: WRAPPING ALL CLUSTERS AROUND PERIODIC BOUNDARIES ON OUTPUT.
Info: FIRST LDB TIMESTEP     100
Info: LAST LDB TIMESTEP     -1
Info: HOM BACKGROUND SCALING 1
Info: PME BACKGROUND SCALING 1
Info: MIN ATOMS PER PATCH    40
Info: INITIAL TEMPERATURE    300
Info: CENTER OF MASS MOVING INITIALLY? NO
Info: DIELECTRIC             1
Info: EXCLUDE                SCALED ONE-FOUR
Info: 1-4 ELECTROSTATICS SCALED BY 1
Info: MODIFIED 1-4 VDW PARAMETERS WILL BE USED
Info: NO DCD TRAJECTORY OUTPUT
Info: XST FILENAME           equil.xst
Info: XST FREQUENCY          100
Info: NO VELOCITY DCD OUTPUT
Info: NO FORCE DCD OUTPUT
Info: OUTPUT FILENAME        equil
Info: BINARY OUTPUT FILES WILL BE USED
Info: RESTART FILENAME       equil
Info: RESTART FREQUENCY      100
Info: BINARY RESTART FILES WILL BE USED
Info: SWITCHING ACTIVE
Info: SWITCHING ON           10
Info: SWITCHING OFF          12
Info: PAIRLIST DISTANCE      16
Info: PAIRLIST SHRINK RATE   0.01
Info: PAIRLIST GROW RATE     0.01
Info: PAIRLIST TRIGGER       0.3
Info: PAIRLISTS PER CYCLE    2
Info: PAIRLISTS ENABLED
Info: MARGIN                 8
Info: HYDROGEN GROUP CUTOFF  2.8
Info: PATCH DIMENSION        26.8
Info: ENERGY OUTPUT STEPS    100
Info: CROSSTERM ENERGY INCLUDED IN DIHEDRAL
Info: TIMING OUTPUT STEPS    100
Info: PRESSURE OUTPUT STEPS  100
Info: FIXED ATOMS ACTIVE
Info: ALCHEMICAL FEP ON
Info: FEP CURRENT LAMBDA VALUE     0
Info: FEP COMPARISON LAMBDA VALUE  0
Info: FEP VDW SHIFTING COEFFICIENT 5
Info: FEP ELEC. ACTIVE FOR ANNIHILATED PARTICLES BETWEEN LAMBDA = 0 AND LAMBDA = 1
Info: FEP ELEC. ACTIVE FOR EXNIHILATED PARTICLES BETWEEN LAMBDA = 0 AND LAMBDA = 1
Info: FEP VDW ACTIVE FOR ANNIHILATED PARTICLES BETWEEN LAMBDA = 1 AND LAMBDA = 1
Info: FEP VDW ACTIVE FOR EXNIHILATED PARTICLES BETWEEN LAMBDA = 0 AND LAMBDA = 0
Info: LANGEVIN DYNAMICS ACTIVE
Info: LANGEVIN TEMPERATURE   300
Info: LANGEVIN DAMPING COEFFICIENT IS 5 INVERSE PS
Info: LANGEVIN DYNAMICS APPLIED TO HYDROGENS
Info: LANGEVIN PISTON PRESSURE CONTROL ACTIVE
Info:        TARGET PRESSURE IS 1.01325 BAR
Info:     OSCILLATION PERIOD IS 200 FS
Info:             DECAY TIME IS 100 FS
Info:     PISTON TEMPERATURE IS 300 K
Info:       PRESSURE CONTROL IS GROUP-BASED
Info:    INITIAL STRAIN RATE IS 0 0 0
Info:       CELL FLUCTUATION IS ISOTROPIC
Info: PARTICLE MESH EWALD (PME) ACTIVE
Info: PME TOLERANCE               1e-05
Info: PME EWALD COEFFICIENT       0.226635
Info: PME INTERPOLATION ORDER     4
Info: PME GRID DIMENSIONS         40 40 40
Info: PME MAXIMUM GRID SPACING    1
Info: FULL ELECTROSTATIC EVALUATION FREQUENCY      2
Info: USING VERLET I (r-RESPA) MTS SCHEME.
Info: C1 SPLITTING OF LONG RANGE ELECTROSTATICS
Info: PLACING ATOMS IN PATCHES BY HYDROGEN GROUPS
Info: RIGID BONDS TO HYDROGEN : ALL
Info:         ERROR TOLERANCE : 1e-06
Info:          MAX ITERATIONS : 400
Info: RIGID WATER USING SETTLE ALGORITHM
Info: RANDOM NUMBER SEED     1408019235
Info: USE HYDROGEN BONDS?    NO
Info: COORDINATE PDB         asp_solvated.pdb
Info: STRUCTURE FILE         asp_solvated.psf
Info: PARAMETER file: CHARMM format!
Info: PARAMETERS             /Users/jbardhan/Parameters/par_all27_prot_lipid_more.prm
Info: USING ARITHMETIC MEAN TO COMBINE L-J SIGMA PARAMETERS
Info: SUMMARY OF PARAMETERS:
Info: 180 BONDS
Info: 447 ANGLES
Info: 568 DIHEDRAL
Info: 46 IMPROPER
Info: 6 CROSSTERM
Info: 114 VDW
Info: 0 VDW_PAIRS
Info: 0 NBTHOLE_PAIRS
Info: To read alchdata from file: fix.pdb
Info: To read alchflag data from column: 5
Info: STRUCTURE SUMMARY:
Info: 5913 ATOMS
Info: 3949 BONDS
Info: 2002 ANGLES
Info: 47 DIHEDRALS
Info: 5 IMPROPERS
Info: 0 CROSSTERMS
Info: 0 EXCLUSIONS
Info: 24 FIXED ATOMS
Info: 5900 RIGID BONDS
Info: 11 RIGID BONDS BETWEEN FIXED ATOMS
Info: ALCH: 0 ATOMS TO DISAPPEAR IN FINAL STATE
Info: ALCH: 24 ATOMS TO APPEAR IN FINAL STATE
Info: 11778 DEGREES OF FREEDOM
Info: 1976 HYDROGEN GROUPS
Info: 4 ATOMS IN LARGEST HYDROGEN GROUP
Info: 1976 MIGRATION GROUPS
Info: 4 ATOMS IN LARGEST MIGRATION GROUP
Info: 13 HYDROGEN GROUPS WITH ALL ATOMS FIXED
Info: TOTAL MASS = 35551.4 amu
Info: TOTAL CHARGE = -1 e
Info: MASS DENSITY = 0.92595 g/cm^3
Info: ATOM DENSITY = 0.0927426 atoms/A^3
Info: REMOVING COM VELOCITY -0.139712 0.0278967 -0.00427209
Info: NONBONDED TABLE R-SQUARED SPACING: 0.0625
Info: NONBONDED TABLE SIZE: 769 POINTS
TCL: Minimizing for 100 steps
ETITLE: TS BOND ANGLE DIHED IMPRP ELECT VDW BOUNDARY MISC KINETIC TOTAL TEMP POTENTIAL TOTAL3 TEMPAVG PRESSURE GPRESSURE VOLUME PRESSAVG GPRESSAVG
ENERGY: 0 1850.6954 410.8461 0.0000 0.0000 -19727.6194 2274866.3382 0.0000 0.0000 0.0000 2257400.2603 0.0000 2257400.2603 2257400.2603 0.0000 9910579.8522 9916407.9572 63757.0922 9910579.8522 9916407.9572
ENERGY: 20 827.0891 363.1941 0.0000 0.0000 -20072.0962 2525.1852 0.0000 0.0000 0.0000 -16356.6278 0.0000 -16356.6278 -16356.6278 0.0000 -897.5269 1766.1848 63757.0922 -897.5269 1766.1848
ENERGY: 40 1289.3420 411.8993 0.0000 0.0000 -20905.2055 1965.5240 0.0000 0.0000 0.0000 -17238.4402 0.0000 -17238.4402 -17238.4402 0.0000 -3521.7840 -2148.0103 63757.0922 -3521.7840 -2148.0103
ENERGY: 60 555.9364 865.0006 0.0000 0.0000 -22059.5402 1640.9678 0.0000 0.0000 0.0000 -18997.6354 0.0000 -18997.6354 -18997.6354 0.0000 -3608.6615 -5114.2491 63757.0922 -3608.6615 -5114.2491
ENERGY: 80 589.5230 407.7960 0.0000 0.0000 -22724.2815 1572.2979 0.0000 0.0000 0.0000 -20154.6646 0.0000 -20154.6646 -20154.6646 0.0000 -4708.2343 -6379.6069 63757.0922 -4708.2343 -6379.6069
ENERGY: 100 658.5792 556.6503 0.0000 0.0000 -23805.5421 1571.8658 0.0000 0.0000 0.0000 -21018.4468 0.0000 -21018.4468 -21018.4468 0.0000 -8306.7367 -7735.0981 63757.0922 -8306.7367 -7735.0981
TCL: Running FEP window   1: Lambda1 0.0    Lambda2 0.0    [dLambda 0.0   ]
TCL: Setting parameter firsttimestep to 0
TCL: Setting parameter alchLambda to 0.0
Info: NONBONDED TABLE R-SQUARED SPACING: 0.0625
Info: NONBONDED TABLE SIZE: 769 POINTS
TCL: Setting parameter alchLambda2 to 0.0
Info: NONBONDED TABLE R-SQUARED SPACING: 0.0625
Info: NONBONDED TABLE SIZE: 769 POINTS
TCL: Original numsteps 100 will be ignored.
TCL: Running for 100000 steps
ETITLE: TS BOND ANGLE DIHED IMPRP ELECT VDW BOUNDARY MISC KINETIC TOTAL TEMP POTENTIAL TOTAL3 TEMPAVG PRESSURE GPRESSURE VOLUME PRESSAVG GPRESSAVG
ENERGY: 0 0.0000 0.0000 0.0000 0.0000 -21554.2736 1541.1464 0.0000 0.0000 3534.6317 -16478.4955 302.0390 -20013.1272 -16483.5440 302.0390 -4113.6522 -4085.5958 63757.0922 -4113.6522 -4085.5958
ENERGY: 20000 0.0000 0.0000 0.0000 0.0000 -21363.9002 1991.0526 0.0000 0.0000 3522.6441 -15850.2034 301.0146 -19372.8475 -15848.6476 300.9076 -324.1334 -237.9600 58474.6127 14.1766 16.4871
ENERGY: 40000 0.0000 0.0000 0.0000 0.0000 -21569.5308 2151.1887 0.0000 0.0000 3551.1608 -15867.1813 303.4514 -19418.3421 -15862.2795 296.4999 462.6356 496.4424 57981.7748 -16.2078 -23.5888
ENERGY: 60000 0.0000 0.0000 0.0000 0.0000 -21400.5133 2052.0819 0.0000 0.0000 3573.8462 -15774.5852 305.3899 -19348.4314 -15770.8795 303.6400 119.2462 158.3776 58084.5316 24.2775 27.4548
ENERGY: 80000 0.0000 0.0000 0.0000 0.0000 -21522.6547 2109.6058 0.0000 0.0000 3531.4566 -15881.5923 301.7677 -19413.0489 -15878.0316 298.3073 324.1316 299.2074 58034.1978 -7.3329 -12.4085
ENERGY: 100000 0.0000 0.0000 0.0000 0.0000 -21279.0075 2064.7523 0.0000 0.0000 3514.1166 -15700.1387 300.2859 -19214.2553 -15690.2460 302.4827 36.6210 189.0416 58673.7237 -59.1177 -60.3995
