Info: SIMULATION PARAMETERS:
Info: TIMESTEP               2
Info: NUMBER OF STEPS        0
Info: STEPS PER CYCLE        20
Info: PERIODIC CELL BASIS 1  39.972 0 0
Info: PERIODIC CELL BASIS 2  0 39.941 0
Info: PERIODIC CELL BASIS 3  0 0 39.935
Info: PERIODIC CELL CENTER   0.0552 0.101 -0.164
Info: WRAPPING ALL CLUSTERS AROUND PERIODIC BOUNDARIES ON OUTPUT.
Info: FIRST LDB TIMESTEP     100
Info: LAST LDB TIMESTEP     -1
Info: HOM BACKGROUND SCALING 1
Info: PME BACKGROUND SCALING 1
Info: MIN ATOMS PER PATCH    40
Info: INITIAL TEMPERATURE    300
Info: CENTER OF MASS MOVING INITIALLY? NO
Info: DIELECTRIC             1
Info: EXCLUDE                SCALED ONE-FOUR
Info: 1-4 ELECTROSTATICS SCALED BY 1
Info: MODIFIED 1-4 VDW PARAMETERS WILL BE USED
Info: NO DCD TRAJECTORY OUTPUT
Info: XST FILENAME           equil.xst
Info: XST FREQUENCY          100
Info: NO VELOCITY DCD OUTPUT
Info: NO FORCE DCD OUTPUT
Info: OUTPUT FILENAME        equil
Info: BINARY OUTPUT FILES WILL BE USED
Info: RESTART FILENAME       equil
Info: RESTART FREQUENCY      100
Info: BINARY RESTART FILES WILL BE USED
Info: SWITCHING ACTIVE
Info: SWITCHING ON           10
Info: SWITCHING OFF          12
Info: PAIRLIST DISTANCE      16
Info: PAIRLIST SHRINK RATE   0.01
Info: PAIRLIST GROW RATE     0.01
Info: PAIRLIST TRIGGER       0.3
Info: PAIRLISTS PER CYCLE    2
Info: PAIRLISTS ENABLED
Info: MARGIN                 8
Info: HYDROGEN GROUP CUTOFF  2.8
Info: PATCH DIMENSION        26.8
Info: ENERGY OUTPUT STEPS    100
Info: CROSSTERM ENERGY INCLUDED IN DIHEDRAL
Info: TIMING OUTPUT STEPS    100
Info: PRESSURE OUTPUT STEPS  100
Info: FIXED ATOMS ACTIVE
Info: ALCHEMICAL FEP ON
Info: FEP CURRENT LAMBDA VALUE     0
Info: FEP COMPARISON LAMBDA VALUE  0
Info: FEP VDW SHIFTING COEFFICIENT 5
Info: FEP ELEC. ACTIVE FOR ANNIHILATED PARTICLES BETWEEN LAMBDA = 0 AND LAMBDA = 1
Info: FEP ELEC. ACTIVE FOR EXNIHILATED PARTICLES BETWEEN LAMBDA = 0 AND LAMBDA = 1
Info: FEP VDW ACTIVE FOR ANNIHILATED PARTICLES BETWEEN LAMBDA = 1 AND LAMBDA = 1
Info: FEP VDW ACTIVE FOR EXNIHILATED PARTICLES BETWEEN LAMBDA = 0 AND LAMBDA = 0
Info: LANGEVIN DYNAMICS ACTIVE
Info: LANGEVIN TEMPERATURE   300
Info: LANGEVIN DAMPING COEFFICIENT IS 5 INVERSE PS
Info: LANGEVIN DYNAMICS APPLIED TO HYDROGENS
Info: LANGEVIN PISTON PRESSURE CONTROL ACTIVE
Info:        TARGET PRESSURE IS 1.01325 BAR
Info:     OSCILLATION PERIOD IS 200 FS
Info:             DECAY TIME IS 100 FS
Info:     PISTON TEMPERATURE IS 300 K
Info:       PRESSURE CONTROL IS GROUP-BASED
Info:    INITIAL STRAIN RATE IS 0 0 0
Info:       CELL FLUCTUATION IS ISOTROPIC
Info: PARTICLE MESH EWALD (PME) ACTIVE
Info: PME TOLERANCE               1e-05
Info: PME EWALD COEFFICIENT       0.226635
Info: PME INTERPOLATION ORDER     4
Info: PME GRID DIMENSIONS         40 40 40
Info: PME MAXIMUM GRID SPACING    1
Info: FULL ELECTROSTATIC EVALUATION FREQUENCY      2
Info: USING VERLET I (r-RESPA) MTS SCHEME.
Info: C1 SPLITTING OF LONG RANGE ELECTROSTATICS
Info: PLACING ATOMS IN PATCHES BY HYDROGEN GROUPS
Info: RIGID BONDS TO HYDROGEN : ALL
Info:         ERROR TOLERANCE : 1e-06
Info:          MAX ITERATIONS : 400
Info: RIGID WATER USING SETTLE ALGORITHM
Info: RANDOM NUMBER SEED     1407995933
Info: USE HYDROGEN BONDS?    NO
Info: COORDINATE PDB         lys_solvated.pdb
Info: STRUCTURE FILE         lys_solvated.psf
Info: PARAMETER file: CHARMM format!
Info: PARAMETERS             /Users/jbardhan/Parameters/par_all27_prot_lipid_more.prm
Info: USING ARITHMETIC MEAN TO COMBINE L-J SIGMA PARAMETERS
Info: SUMMARY OF PARAMETERS:
Info: 180 BONDS
Info: 447 ANGLES
Info: 568 DIHEDRAL
Info: 46 IMPROPER
Info: 6 CROSSTERM
Info: 114 VDW
Info: 0 VDW_PAIRS
Info: 0 NBTHOLE_PAIRS
Info: To read alchdata from file: fix.pdb
Info: To read alchflag data from column: 5
Info: STRUCTURE SUMMARY:
Info: 5908 ATOMS
Info: 3949 BONDS
Info: 2018 ANGLES
Info: 77 DIHEDRALS
Info: 4 IMPROPERS
Info: 0 CROSSTERMS
Info: 0 EXCLUSIONS
Info: 34 FIXED ATOMS
Info: 5894 RIGID BONDS
Info: 20 RIGID BONDS BETWEEN FIXED ATOMS
Info: ALCH: 0 ATOMS TO DISAPPEAR IN FINAL STATE
Info: ALCH: 34 ATOMS TO APPEAR IN FINAL STATE
Info: 11748 DEGREES OF FREEDOM
Info: 1972 HYDROGEN GROUPS
Info: 4 ATOMS IN LARGEST HYDROGEN GROUP
Info: 1972 MIGRATION GROUPS
Info: 4 ATOMS IN LARGEST MIGRATION GROUP
Info: 14 HYDROGEN GROUPS WITH ALL ATOMS FIXED
Info: TOTAL MASS = 35476.4 amu
Info: TOTAL CHARGE = 5.21541e-08 e
Info: MASS DENSITY = 0.923997 g/cm^3
Info: ATOM DENSITY = 0.0926642 atoms/A^3
Info: REMOVING COM VELOCITY 0.0505508 0.0071036 -0.0594921
Info: NONBONDED TABLE R-SQUARED SPACING: 0.0625
Info: NONBONDED TABLE SIZE: 769 POINTS
TCL: Minimizing for 100 steps
ETITLE: TS BOND ANGLE DIHED IMPRP ELECT VDW BOUNDARY MISC KINETIC TOTAL TEMP POTENTIAL TOTAL3 TEMPAVG PRESSURE GPRESSURE VOLUME PRESSAVG GPRESSAVG
ENERGY: 0 1845.2187 410.0928 0.0000 0.0000 -19651.7296 2274846.7967 0.0000 0.0000 0.0000 2257450.3785 0.0000 2257450.3785 2257450.3785 0.0000 9910473.0764 9916346.0105 63757.0922 9910473.0764 9916346.0105
ENERGY: 20 824.9659 362.6662 0.0000 0.0000 -19992.9788 2506.1868 0.0000 0.0000 0.0000 -16299.1599 0.0000 -16299.1599 -16299.1599 0.0000 -971.5820 1713.0601 63757.0922 -971.5820 1713.0601
ENERGY: 40 1284.0692 411.1095 0.0000 0.0000 -20825.8649 1951.5290 0.0000 0.0000 0.0000 -17179.1572 0.0000 -17179.1572 -17179.1572 0.0000 -3552.3504 -2163.4264 63757.0922 -3552.3504 -2163.4264
ENERGY: 60 553.0403 862.2358 0.0000 0.0000 -21977.7054 1630.5229 0.0000 0.0000 0.0000 -18931.9064 0.0000 -18931.9064 -18931.9064 0.0000 -3581.0036 -5096.9061 63757.0922 -3581.0036 -5096.9061
ENERGY: 80 582.7847 410.9200 0.0000 0.0000 -22642.9522 1561.8743 0.0000 0.0000 0.0000 -20087.3732 0.0000 -20087.3732 -20087.3732 0.0000 -4796.6370 -6354.0402 63757.0922 -4796.6370 -6354.0402
ENERGY: 100 631.5045 542.1819 0.0000 0.0000 -23681.1440 1555.4776 0.0000 0.0000 0.0000 -20951.9800 0.0000 -20951.9800 -20951.9800 0.0000 -8028.0649 -7691.1074 63757.0922 -8028.0649 -7691.1074
TCL: Running FEP window   1: Lambda1 0.0    Lambda2 0.0    [dLambda 0.0   ]
TCL: Setting parameter firsttimestep to 0
TCL: Setting parameter alchLambda to 0.0
Info: NONBONDED TABLE R-SQUARED SPACING: 0.0625
Info: NONBONDED TABLE SIZE: 769 POINTS
TCL: Setting parameter alchLambda2 to 0.0
Info: NONBONDED TABLE R-SQUARED SPACING: 0.0625
Info: NONBONDED TABLE SIZE: 769 POINTS
TCL: Original numsteps 100 will be ignored.
TCL: Running for 100000 steps
ETITLE: TS BOND ANGLE DIHED IMPRP ELECT VDW BOUNDARY MISC KINETIC TOTAL TEMP POTENTIAL TOTAL3 TEMPAVG PRESSURE GPRESSURE VOLUME PRESSAVG GPRESSAVG
ENERGY: 0 0.0000 0.0000 0.0000 0.0000 -21461.8337 1525.3973 0.0000 0.0000 3597.3541 -16339.0822 308.1837 -19936.4364 -16344.1723 308.1837 -4067.0288 -4038.7716 63757.0922 -4067.0288 -4038.7716
ENERGY: 20000 0.0000 0.0000 0.0000 0.0000 -21425.5236 2103.5898 0.0000 0.0000 3535.8516 -15786.0823 302.9148 -19321.9339 -15773.9245 299.8977 348.3175 394.3995 57995.9344 31.2628 36.2092
ENERGY: 40000 0.0000 0.0000 0.0000 0.0000 -21327.9570 2050.9677 0.0000 0.0000 3587.3185 -15689.6708 307.3239 -19276.9893 -15682.0416 302.9873 280.7988 264.6606 57920.6903 -26.7185 -25.8149
ENERGY: 60000 0.0000 0.0000 0.0000 0.0000 -21409.4663 2073.3682 0.0000 0.0000 3530.2109 -15805.8872 302.4315 -19336.0981 -15793.4803 298.6917 137.6018 179.8190 58373.5152 -58.2112 -52.6903
ENERGY: 80000 0.0000 0.0000 0.0000 0.0000 -21455.2904 2018.5635 0.0000 0.0000 3507.7382 -15928.9886 300.5063 -19436.7269 -15913.8410 297.9021 -185.0774 -192.2304 58199.4092 2.2269 -0.0538
ENERGY: 100000 0.0000 0.0000 0.0000 0.0000 -21433.7453 2052.3802 0.0000 0.0000 3501.7123 -15879.6528 299.9901 -19381.3650 -15881.4938 297.2704 -254.0877 -158.9821 58602.3331 -38.1381 -33.7745
