Info: SIMULATION PARAMETERS:
Info: TIMESTEP               2
Info: NUMBER OF STEPS        0
Info: STEPS PER CYCLE        20
Info: PERIODIC CELL BASIS 1  39.972 0 0
Info: PERIODIC CELL BASIS 2  0 39.941 0
Info: PERIODIC CELL BASIS 3  0 0 39.935
Info: PERIODIC CELL CENTER   0.0551 0.0897 -0.171
Info: WRAPPING ALL CLUSTERS AROUND PERIODIC BOUNDARIES ON OUTPUT.
Info: FIRST LDB TIMESTEP     100
Info: LAST LDB TIMESTEP     -1
Info: HOM BACKGROUND SCALING 1
Info: PME BACKGROUND SCALING 1
Info: MIN ATOMS PER PATCH    40
Info: INITIAL TEMPERATURE    300
Info: CENTER OF MASS MOVING INITIALLY? NO
Info: DIELECTRIC             1
Info: EXCLUDE                SCALED ONE-FOUR
Info: 1-4 ELECTROSTATICS SCALED BY 1
Info: MODIFIED 1-4 VDW PARAMETERS WILL BE USED
Info: NO DCD TRAJECTORY OUTPUT
Info: XST FILENAME           equil.xst
Info: XST FREQUENCY          100
Info: NO VELOCITY DCD OUTPUT
Info: NO FORCE DCD OUTPUT
Info: OUTPUT FILENAME        equil
Info: BINARY OUTPUT FILES WILL BE USED
Info: RESTART FILENAME       equil
Info: RESTART FREQUENCY      100
Info: BINARY RESTART FILES WILL BE USED
Info: SWITCHING ACTIVE
Info: SWITCHING ON           10
Info: SWITCHING OFF          12
Info: PAIRLIST DISTANCE      16
Info: PAIRLIST SHRINK RATE   0.01
Info: PAIRLIST GROW RATE     0.01
Info: PAIRLIST TRIGGER       0.3
Info: PAIRLISTS PER CYCLE    2
Info: PAIRLISTS ENABLED
Info: MARGIN                 8
Info: HYDROGEN GROUP CUTOFF  2.8
Info: PATCH DIMENSION        26.8
Info: ENERGY OUTPUT STEPS    100
Info: CROSSTERM ENERGY INCLUDED IN DIHEDRAL
Info: TIMING OUTPUT STEPS    100
Info: PRESSURE OUTPUT STEPS  100
Info: FIXED ATOMS ACTIVE
Info: ALCHEMICAL FEP ON
Info: FEP CURRENT LAMBDA VALUE     0
Info: FEP COMPARISON LAMBDA VALUE  0
Info: FEP VDW SHIFTING COEFFICIENT 5
Info: FEP ELEC. ACTIVE FOR ANNIHILATED PARTICLES BETWEEN LAMBDA = 0 AND LAMBDA = 1
Info: FEP ELEC. ACTIVE FOR EXNIHILATED PARTICLES BETWEEN LAMBDA = 0 AND LAMBDA = 1
Info: FEP VDW ACTIVE FOR ANNIHILATED PARTICLES BETWEEN LAMBDA = 1 AND LAMBDA = 1
Info: FEP VDW ACTIVE FOR EXNIHILATED PARTICLES BETWEEN LAMBDA = 0 AND LAMBDA = 0
Info: LANGEVIN DYNAMICS ACTIVE
Info: LANGEVIN TEMPERATURE   300
Info: LANGEVIN DAMPING COEFFICIENT IS 5 INVERSE PS
Info: LANGEVIN DYNAMICS APPLIED TO HYDROGENS
Info: LANGEVIN PISTON PRESSURE CONTROL ACTIVE
Info:        TARGET PRESSURE IS 1.01325 BAR
Info:     OSCILLATION PERIOD IS 200 FS
Info:             DECAY TIME IS 100 FS
Info:     PISTON TEMPERATURE IS 300 K
Info:       PRESSURE CONTROL IS GROUP-BASED
Info:    INITIAL STRAIN RATE IS 0 0 0
Info:       CELL FLUCTUATION IS ISOTROPIC
Info: PARTICLE MESH EWALD (PME) ACTIVE
Info: PME TOLERANCE               1e-05
Info: PME EWALD COEFFICIENT       0.226635
Info: PME INTERPOLATION ORDER     4
Info: PME GRID DIMENSIONS         40 40 40
Info: PME MAXIMUM GRID SPACING    1
Info: FULL ELECTROSTATIC EVALUATION FREQUENCY      2
Info: USING VERLET I (r-RESPA) MTS SCHEME.
Info: C1 SPLITTING OF LONG RANGE ELECTROSTATICS
Info: PLACING ATOMS IN PATCHES BY HYDROGEN GROUPS
Info: RIGID BONDS TO HYDROGEN : ALL
Info:         ERROR TOLERANCE : 1e-06
Info:          MAX ITERATIONS : 400
Info: RIGID WATER USING SETTLE ALGORITHM
Info: RANDOM NUMBER SEED     1407953827
Info: USE HYDROGEN BONDS?    NO
Info: COORDINATE PDB         tyr_solvated.pdb
Info: STRUCTURE FILE         tyr_solvated.psf
Info: PARAMETER file: CHARMM format!
Info: PARAMETERS             /homes/jbardhan/Parameters/par_all27_prot_lipid_more.prm
Info: USING ARITHMETIC MEAN TO COMBINE L-J SIGMA PARAMETERS
Info: SUMMARY OF PARAMETERS:
Info: 180 BONDS
Info: 447 ANGLES
Info: 568 DIHEDRAL
Info: 46 IMPROPER
Info: 6 CROSSTERM
Info: 114 VDW
Info: 0 VDW_PAIRS
Info: To read alch data from file: fix.pdb
Info: To read alch flag data from column: 5
Info: STRUCTURE SUMMARY:
Info: 5898 ATOMS
Info: 3943 BONDS
Info: 2010 ANGLES
Info: 73 DIHEDRALS
Info: 4 IMPROPERS
Info: 0 CROSSTERMS
Info: 0 EXCLUSIONS
Info: 33 FIXED ATOMS
Info: 5881 RIGID BONDS
Info: 16 RIGID BONDS BETWEEN FIXED ATOMS
Info: ALCH: 0 ATOMS TO DISAPPEAR IN FINAL STATE
Info: ALCH: 33 ATOMS TO APPEAR IN FINAL STATE
Info: 11730 DEGREES OF FREEDOM
Info: 1972 HYDROGEN GROUPS
Info: 4 ATOMS IN LARGEST HYDROGEN GROUP
Info: 1972 MIGRATION GROUPS
Info: 4 ATOMS IN LARGEST MIGRATION GROUP
Info: 17 HYDROGEN GROUPS WITH ALL ATOMS FIXED
Info: TOTAL MASS = 35456.4 amu
Info: TOTAL CHARGE = -1 e
Info: MASS DENSITY = 0.923475 g/cm^3
Info: ATOM DENSITY = 0.0925074 atoms/A^3
Info: REMOVING COM VELOCITY -0.0152352 0.0959541 -0.00845458
Info: NONBONDED TABLE R-SQUARED SPACING: 0.0625
Info: NONBONDED TABLE SIZE: 769 POINTS
TCL: Minimizing for 100 steps
ETITLE: TS BOND ANGLE DIHED IMPRP ELECT VDW BOUNDARY MISC KINETIC TOTAL TEMP POTENTIAL TOTAL3 TEMPAVG PRESSURE GPRESSURE VOLUME PRESSAVG GPRESSAVG
ENERGY: 0 1844.7723 410.1564 0.0000 0.0000 -19563.6708 2274842.9429 0.0000 0.0000 0.0000 2257534.2008 0.0000 2257534.2008 2257534.2008 0.0000 9910438.4508 9916337.8196 63757.0922 9910438.4508 9916337.8196
ENERGY: 20 824.7569 362.4032 0.0000 0.0000 -19904.5804 2502.7827 0.0000 0.0000 0.0000 -16214.6376 0.0000 -16214.6376 -16214.6376 0.0000 -984.7248 1707.6097 63757.0922 -984.7248 1707.6097
ENERGY: 40 1284.2375 410.8726 0.0000 0.0000 -20738.8177 1949.1801 0.0000 0.0000 0.0000 -17094.5276 0.0000 -17094.5276 -17094.5276 0.0000 -3566.6912 -2164.0238 63757.0922 -3566.6912 -2164.0238
ENERGY: 60 552.2110 862.2915 0.0000 0.0000 -21892.9315 1630.0710 0.0000 0.0000 0.0000 -18848.3580 0.0000 -18848.3580 -18848.3580 0.0000 -3572.2206 -5088.7229 63757.0922 -3572.2206 -5088.7229
ENERGY: 80 583.0223 411.3342 0.0000 0.0000 -22560.8531 1564.4788 0.0000 0.0000 0.0000 -20002.0178 0.0000 -20002.0178 -20002.0178 0.0000 -4785.9460 -6330.7777 63757.0922 -4785.9460 -6330.7777
ENERGY: 100 575.4401 462.6626 0.0000 0.0000 -23296.9346 1539.0386 0.0000 0.0000 0.0000 -20719.7932 0.0000 -20719.7932 -20719.7932 0.0000 -6286.9141 -7407.2084 63757.0922 -6286.9141 -7407.2084
TCL: Running FEP window   1: Lambda1 0.0    Lambda2 0.0    [dLambda 0.0   ]
TCL: Setting parameter firsttimestep to 0
TCL: Setting parameter alchLambda to 0.0
Info: NONBONDED TABLE R-SQUARED SPACING: 0.0625
Info: NONBONDED TABLE SIZE: 769 POINTS
TCL: Setting parameter alchLambda2 to 0.0
Info: NONBONDED TABLE R-SQUARED SPACING: 0.0625
Info: NONBONDED TABLE SIZE: 769 POINTS
TCL: Original numsteps 100 will be ignored.
TCL: Running for 100000 steps
ETITLE: TS BOND ANGLE DIHED IMPRP ELECT VDW BOUNDARY MISC KINETIC TOTAL TEMP POTENTIAL TOTAL3 TEMPAVG PRESSURE GPRESSURE VOLUME PRESSAVG GPRESSAVG
ENERGY: 0 0.0000 0.0000 0.0000 0.0000 -21241.1199 1511.0079 0.0000 0.0000 3513.5412 -16216.5708 301.4654 -19730.1120 -16221.3967 301.4654 -3965.0696 -3936.3691 63757.0922 -3965.0696 -3936.3691
ENERGY: 20000 0.0000 0.0000 0.0000 0.0000 -21424.8975 2065.8873 0.0000 0.0000 3590.2114 -15768.7988 308.0437 -19359.0102 -15757.7819 299.6044 79.4573 49.4178 58018.8273 24.0083 24.1175
ENERGY: 40000 0.0000 0.0000 0.0000 0.0000 -21108.3928 1937.9678 0.0000 0.0000 3532.1169 -15638.3080 303.0592 -19170.4249 -15631.0590 304.6540 -404.8148 -386.1434 58659.5702 26.3174 25.5188
ENERGY: 60000 0.0000 0.0000 0.0000 0.0000 -21201.9407 2025.4752 0.0000 0.0000 3502.3626 -15674.1028 300.5062 -19176.4655 -15669.8848 300.4205 223.5898 196.9164 57864.2820 55.8273 48.3933
ENERGY: 80000 0.0000 0.0000 0.0000 0.0000 -21503.0709 2184.2788 0.0000 0.0000 3516.2710 -15802.5210 301.6996 -19318.7921 -15803.1261 299.3466 739.6613 723.8482 57734.1348 24.7212 15.2727
ENERGY: 100000 0.0000 0.0000 0.0000 0.0000 -21234.5995 2032.7783 0.0000 0.0000 3469.3543 -15732.4669 297.6741 -19201.8212 -15725.5589 299.3843 32.4351 25.7910 58207.4072 -51.8078 -55.7042
